data_generated_from_inp
_symmetry_space_group_name_H-M   'P 1'
_symmetry_Int_Tables_number       1
_cell_length_a    50.00000000
_cell_length_b    50.00000000
_cell_length_c    50.00000000
_cell_angle_alpha 90.00000000
_cell_angle_beta  90.00000000
_cell_angle_gamma 90.00000000

loop_
_symmetry_equiv_pos_as_xyz
  'x, y, z'

loop_
_atom_site_label
_atom_site_type_symbol
_atom_site_fract_x
_atom_site_fract_y
_atom_site_fract_z
_atom_site_occupancy
  O1     O   0.9771813729  0.0000000000  0.0000000000  1.0
  O2     O   0.0228186270  0.0000000000  0.0000000000  1.0
