# generated using pymatgen
data_Li46La3Zr2O12
_symmetry_space_group_name_H-M   'P 1'
_cell_length_a   12.21512624
_cell_length_b   12.19940346
_cell_length_c   93.48111179
_cell_angle_alpha   89.92620873
_cell_angle_beta   90.08577186
_cell_angle_gamma   108.34079388
_symmetry_Int_Tables_number   1
_chemical_formula_structural   Li46La3Zr2O12
_chemical_formula_sum   'Li552 La36 Zr24 O144'
_cell_volume   13222.64301629
_cell_formula_units_Z   12
loop_
 _symmetry_equiv_pos_site_id
 _symmetry_equiv_pos_as_xyz
  1  'x, y, z'
loop_
 _atom_site_type_symbol
 _atom_site_label
 _atom_site_symmetry_multiplicity
 _atom_site_fract_x
 _atom_site_fract_y
 _atom_site_fract_z
 _atom_site_occupancy
  Li  Li0  1  0.33575874  0.61307978  0.15282337  1
  Li  Li1  1  0.34412328  0.09579531  0.15317547  1
  Li  Li2  1  0.01479692  0.07474159  0.15201036  1
  Li  Li3  1  0.07684521  0.59495019  0.15918573  1
  Li  Li4  1  0.18963686  0.85487830  0.15945859  1
  Li  Li5  1  0.85358862  0.03214625  0.17117403  1
  Li  Li6  1  0.49859359  0.60796598  0.16687121  1
  Li  Li7  1  0.28238032  0.03486893  0.17456016  1
  Li  Li8  1  0.97883587  0.55086733  0.18156357  1
  Li  Li9  1  0.67274152  0.73765381  0.18444093  1
  Li  Li10  1  0.67208749  0.96016189  0.18522980  1
  Li  Li11  1  0.79794013  0.59556058  0.19219391  1
  Li  Li12  1  0.41350424  0.05422855  0.19409543  1
  Li  Li13  1  0.52602536  0.52371386  0.19146747  1
  Li  Li14  1  0.85637798  0.17926890  0.20044187  1
  Li  Li15  1  0.35712067  0.22601083  0.19734906  1
  Li  Li16  1  0.94666735  0.43027376  0.20127452  1
  Li  Li17  1  0.33432344  0.38983753  0.21000092  1
  Li  Li18  1  0.09945906  0.32735461  0.20924145  1
  Li  Li19  1  0.93183781  0.62539836  0.21268349  1
  Li  Li20  1  0.34728694  0.96189584  0.22132232  1
  Li  Li21  1  0.90218775  0.13576991  0.22436225  1
  Li  Li22  1  0.36801597  0.55101724  0.22969152  1
  Li  Li23  1  0.16517027  0.80142922  0.23041844  1
  Li  Li24  1  0.94357710  0.77556002  0.23153374  1
  Li  Li25  1  0.34419038  0.73851251  0.23803960  1
  Li  Li26  1  0.49753151  0.98515157  0.24366712  1
  Li  Li27  1  0.90347431  0.97192182  0.24147461  1
  Li  Li28  1  0.75782986  0.07945892  0.24482541  1
  Li  Li29  1  0.76763430  0.59492653  0.24470355  1
  Li  Li30  1  0.52476820  0.50134229  0.24945419  1
  Li  Li31  1  0.57753870  0.15061736  0.25673086  1
  Li  Li32  1  0.63820171  0.36780880  0.25641332  1
  Li  Li33  1  0.32262070  0.55093621  0.25739475  1
  Li  Li34  1  0.92083750  0.11484081  0.25942693  1
  Li  Li35  1  0.77236239  0.55659759  0.26863351  1
  Li  Li36  1  0.42160301  0.09435235  0.27611111  1
  Li  Li37  1  0.10414583  0.27689672  0.27625916  1
  Li  Li38  1  0.18126234  0.50871148  0.27865223  1
  Li  Li39  1  0.23456061  0.13805085  0.28749187  1
  Li  Li40  1  0.96864627  0.56915646  0.28836224  1
  Li  Li41  1  0.97143080  0.05215196  0.28918317  1
  Li  Li42  1  0.33011364  0.69253124  0.29270236  1
  Li  Li43  1  0.79824649  0.68878626  0.28990901  1
  Li  Li44  1  0.43802829  0.94200527  0.29553935  1
  Li  Li45  1  0.78420153  0.88009575  0.30101208  1
  Li  Li46  1  0.54149470  0.81044759  0.30275854  1
  Li  Li47  1  0.39999338  0.13263715  0.30385753  1
  Li  Li48  1  0.80778154  0.49967681  0.30615677  1
  Li  Li49  1  0.37489647  0.65900190  0.31876301  1
  Li  Li50  1  0.86432170  0.01086933  0.31888253  1
  Li  Li51  1  0.65922277  0.38223964  0.32620934  1
  Li  Li52  1  0.41469697  0.27204469  0.32705655  1
  Li  Li53  1  0.81439469  0.30353843  0.32910871  1
  Li  Li54  1  0.95652416  0.50408626  0.33914347  1
  Li  Li55  1  0.38520746  0.47243574  0.33291624  1
  Li  Li56  1  0.25774602  0.60997230  0.33941756  1
  Li  Li57  1  0.24446285  0.12156649  0.34110542  1
  Li  Li58  1  0.99441609  0.00970604  0.34003578  1
  Li  Li59  1  0.07372390  0.72939958  0.34641132  1
  Li  Li60  1  0.15248140  0.94155110  0.35269365  1
  Li  Li61  1  0.85389761  0.12917643  0.33985621  1
  Li  Li62  1  0.42372440  0.64321855  0.35582513  1
  Li  Li63  1  0.27064226  0.12056560  0.36797131  1
  Li  Li64  1  0.88824720  0.61053713  0.36067433  1
  Li  Li65  1  0.57774789  0.79155168  0.37321813  1
  Li  Li66  1  0.71673485  0.06537847  0.36177321  1
  Li  Li67  1  0.71863853  0.65848095  0.37817541  1
  Li  Li68  1  0.52600150  0.06202660  0.37985417  1
  Li  Li69  1  0.46453236  0.59100884  0.38649583  1
  Li  Li70  1  0.75083424  0.22014815  0.38906292  1
  Li  Li71  1  0.24694750  0.25996488  0.38580736  1
  Li  Li72  1  0.89203040  0.52184468  0.38313741  1
  Li  Li73  1  0.23128256  0.42929724  0.39601296  1
  Li  Li74  1  0.00860120  0.33270146  0.39184449  1
  Li  Li75  1  0.88566491  0.68390133  0.39596478  1
  Li  Li76  1  0.32809572  0.07805437  0.39234948  1
  Li  Li77  1  0.86790932  0.16085715  0.41376417  1
  Li  Li78  1  0.32301290  0.56072613  0.41589273  1
  Li  Li79  1  0.14357315  0.90135494  0.41509881  1
  Li  Li80  1  0.91369413  0.78356606  0.41771811  1
  Li  Li81  1  0.30924099  0.79040843  0.42818623  1
  Li  Li82  1  0.36708770  0.02137805  0.42191358  1
  Li  Li83  1  0.93948126  0.98933646  0.42715203  1
  Li  Li84  1  0.11901559  0.92389584  0.48096670  1
  Li  Li85  1  0.24925460  0.21660010  0.49563302  1
  Li  Li86  1  0.26634631  0.08666855  0.55371541  1
  Li  Li87  1  0.26082410  0.01416654  0.64076119  1
  Li  Li88  1  0.39682359  0.10256288  0.68534275  1
  Li  Li89  1  0.36238730  0.04726234  0.75030788  1
  Li  Li90  1  0.55008817  0.20793077  0.79171628  1
  Li  Li91  1  0.21218620  0.07817423  0.83809064  1
  Li  Li92  1  0.36966158  0.86769404  0.89127386  1
  Li  Li93  1  0.25467388  0.10482463  0.46672146  1
  Li  Li94  1  0.12903004  0.23795965  0.46735760  1
  Li  Li95  1  0.28505910  0.21427712  0.52701926  1
  Li  Li96  1  0.34303287  0.20379842  0.57590620  1
  Li  Li97  1  0.28974163  0.25071625  0.63211992  1
  Li  Li98  1  0.50895408  0.10557435  0.71497761  1
  Li  Li99  1  0.31096827  0.23527826  0.76541872  1
  Li  Li100  1  0.37892735  0.29902247  0.79305862  1
  Li  Li101  1  0.24860669  0.38364520  0.84287468  1
  Li  Li102  1  0.31044010  0.21594458  0.86487087  1
  Li  Li103  1  0.34955543  0.31589064  0.47444661  1
  Li  Li104  1  0.29925633  0.36093705  0.44543268  1
  Li  Li105  1  0.34470824  0.48738103  0.53588945  1
  Li  Li106  1  0.20298379  0.29280448  0.59256539  1
  Li  Li107  1  0.33292508  0.34092939  0.67096665  1
  Li  Li108  1  0.49270951  0.31745515  0.69138817  1
  Li  Li109  1  0.49813969  0.46472870  0.77715690  1
  Li  Li110  1  0.59159680  0.40954860  0.80734181  1
  Li  Li111  1  0.44917276  0.47764502  0.86379181  1
  Li  Li112  1  0.63539622  0.50721696  0.95009608  1
  Li  Li113  1  0.45703609  0.44816383  0.49320072  1
  Li  Li114  1  0.40188384  0.60042569  0.43817626  1
  Li  Li115  1  0.41914551  0.62212739  0.51489959  1
  Li  Li116  1  0.32588109  0.51767288  0.59495328  1
  Li  Li117  1  0.43942545  0.63973268  0.65560922  1
  Li  Li118  1  0.41109411  0.48748902  0.72748435  1
  Li  Li119  1  0.43275025  0.73725525  0.71861553  1
  Li  Li120  1  0.52931921  0.52507586  0.83712567  1
  Li  Li121  1  0.37110348  0.63962091  0.84699545  1
  Li  Li122  1  0.45799457  0.53942228  0.90053223  1
  Li  Li123  1  0.52753538  0.69146016  0.49185978  1
  Li  Li124  1  0.50489983  0.77927603  0.46138228  1
  Li  Li125  1  0.35234672  0.74134112  0.53450313  1
  Li  Li126  1  0.32658108  0.62674369  0.56753459  1
  Li  Li127  1  0.60514995  0.79406852  0.60874622  1
  Li  Li128  1  0.64726058  0.68508022  0.72783364  1
  Li  Li129  1  0.64408933  0.83374045  0.74463010  1
  Li  Li130  1  0.55508841  0.62757616  0.79603990  1
  Li  Li131  1  0.52440369  0.74805200  0.82032989  1
  Li  Li132  1  0.54747278  0.79250107  0.90626857  1
  Li  Li133  1  0.48196934  0.86860215  0.48716019  1
  Li  Li134  1  0.68556068  0.98698923  0.46677373  1
  Li  Li135  1  0.33333333  0.96640266  0.53355777  1
  Li  Li136  1  0.51553500  0.80379325  0.56019906  1
  Li  Li137  1  0.56590111  0.08425524  0.64013796  1
  Li  Li138  1  0.55564241  0.80407790  0.67503383  1
  Li  Li139  1  0.64746076  0.19123073  0.69270647  1
  Li  Li140  1  0.76349903  0.90252516  0.77389722  1
  Li  Li141  1  0.56174046  0.98576570  0.83274166  1
  Li  Li142  1  0.63301857  0.77978941  0.84985657  1
  Li  Li143  1  0.53619876  0.91471853  0.53777974  1
  Li  Li144  1  0.19642614  0.92517956  0.44642353  1
  Li  Li145  1  0.39733216  0.11273785  0.51089254  1
  Li  Li146  1  0.51380119  0.16105387  0.59242912  1
  Li  Li147  1  0.26738766  0.11769855  0.60411332  1
  Li  Li148  1  0.59982483  0.21395803  0.66325688  1
  Li  Li149  1  0.63585289  0.24961637  0.73337397  1
  Li  Li150  1  0.72815383  0.07598178  0.74687985  1
  Li  Li151  1  0.41626182  0.30734918  0.83404070  1
  Li  Li152  1  0.62034928  0.95162594  0.88167505  1
  Li  Li153  1  0.33171420  0.95463471  0.48970867  1
  Li  Li154  1  0.19919255  0.13426872  0.43458460  1
  Li  Li155  1  0.49431144  0.20057898  0.53674523  1
  Li  Li156  1  0.57007652  0.27347522  0.56400526  1
  Li  Li157  1  0.44663565  0.33326068  0.60922190  1
  Li  Li158  1  0.37302282  0.18816221  0.65511016  1
  Li  Li159  1  0.52055921  0.21461063  0.76331173  1
  Li  Li160  1  0.72651334  0.17782576  0.77549948  1
  Li  Li161  1  0.57946003  0.32406201  0.86075352  1
  Li  Li162  1  0.49496608  0.11450804  0.87901551  1
  Li  Li163  1  0.48334055  0.21862523  0.48880454  1
  Li  Li164  1  0.44393110  0.20392463  0.44637639  1
  Li  Li165  1  0.37845962  0.31952524  0.55278997  1
  Li  Li166  1  0.46896884  0.43838148  0.58282973  1
  Li  Li167  1  0.46325642  0.45965075  0.64280734  1
  Li  Li168  1  0.55802355  0.39379095  0.66423897  1
  Li  Li169  1  0.58610436  0.47040546  0.75020195  1
  Li  Li170  1  0.80002468  0.47183937  0.73928477  1
  Li  Li171  1  0.63502159  0.50806698  0.88574685  1
  Li  Li172  1  0.39428906  0.31538404  0.88845475  1
  Li  Li173  1  0.55650590  0.36608317  0.46739584  1
  Li  Li174  1  0.41493014  0.55038944  0.46422627  1
  Li  Li175  1  0.58444907  0.57098346  0.51314181  1
  Li  Li176  1  0.47185952  0.57651782  0.55878555  1
  Li  Li177  1  0.66978053  0.59760102  0.65509862  1
  Li  Li178  1  0.56564889  0.55877493  0.70258447  1
  Li  Li179  1  0.46315068  0.66052540  0.74857507  1
  Li  Li180  1  0.68545449  0.67395125  0.76952849  1
  Li  Li181  1  0.54038872  0.70925979  0.87672965  1
  Li  Li182  1  0.74687713  0.72866490  0.89856200  1
  Li  Li183  1  0.50141372  0.33194429  0.51469547  1
  Li  Li184  1  0.64123832  0.63414641  0.45815991  1
  Li  Li185  1  0.57143113  0.68004373  0.53803764  1
  Li  Li186  1  0.52881138  0.69364720  0.58306436  1
  Li  Li187  1  0.60781381  0.70503736  0.63604562  1
  Li  Li188  1  0.74222074  0.68923081  0.68330736  1
  Li  Li189  1  0.82913687  0.93608973  0.73395775  1
  Li  Li190  1  0.93830291  0.85046899  0.76210842  1
  Li  Li191  1  0.77025068  0.91570938  0.82841941  1
  Li  Li192  1  0.84498177  0.81264789  0.85154354  1
  Li  Li193  1  0.58510586  0.82635677  0.51340739  1
  Li  Li194  1  0.70357794  0.77998747  0.48007153  1
  Li  Li195  1  0.65472118  0.07352147  0.56945482  1
  Li  Li196  1  0.70560333  0.88953597  0.58544553  1
  Li  Li197  1  0.74078661  0.95231258  0.63920888  1
  Li  Li198  1  0.75278739  0.84733089  0.66284423  1
  Li  Li199  1  0.78043091  0.95688738  0.68946739  1
  Li  Li200  1  0.73224103  0.81808369  0.80096667  1
  Li  Li201  1  0.81433453  0.06764814  0.80118352  1
  Li  Li202  1  0.03558689  0.99815402  0.85410269  1
  Li  Li203  1  0.02129016  0.02279646  0.45707095  1
  Li  Li204  1  0.52024343  0.03168857  0.44278079  1
  Li  Li205  1  0.45509342  0.02855946  0.55811943  1
  Li  Li206  1  0.65752004  0.01567245  0.61502168  1
  Li  Li207  1  0.42225909  0.11286314  0.62147469  1
  Li  Li208  1  0.66639082  0.04203838  0.66973779  1
  Li  Li209  1  0.87498025  0.30209385  0.75477758  1
  Li  Li210  1  0.98184564  0.11493455  0.74187303  1
  Li  Li211  1  0.61421111  0.21106176  0.83158594  1
  Li  Li212  1  0.82813968  0.06491682  0.85728711  1
  Li  Li213  1  0.53492925  0.02242551  0.51055088  1
  Li  Li214  1  0.51306340  0.06401906  0.46965668  1
  Li  Li215  1  0.68177475  0.13958556  0.54177095  1
  Li  Li216  1  0.67389018  0.25227245  0.61510976  1
  Li  Li217  1  0.57897801  0.32567555  0.63783028  1
  Li  Li218  1  0.76645677  0.23103316  0.64023787  1
  Li  Li219  1  0.58257776  0.40786700  0.72051322  1
  Li  Li220  1  0.70801231  0.40628052  0.77500653  1
  Li  Li221  1  0.72623956  0.43840956  0.83107479  1
  Li  Li222  1  0.65282391  0.10628028  0.85917405  1
  Li  Li223  1  0.68458665  0.25896848  0.51398001  1
  Li  Li224  1  0.64429264  0.28973294  0.42909367  1
  Li  Li225  1  0.55110074  0.44786402  0.53802389  1
  Li  Li226  1  0.75245728  0.29713915  0.58039470  1
  Li  Li227  1  0.66238375  0.43710170  0.59981582  1
  Li  Li228  1  0.79444469  0.45942428  0.64920452  1
  Li  Li229  1  0.69398403  0.42946398  0.68351317  1
  Li  Li230  1  0.90961408  0.55551385  0.76340909  1
  Li  Li231  1  0.76457427  0.55960211  0.79661117  1
  Li  Li232  1  0.80803572  0.32086720  0.85584320  1
  Li  Li233  1  0.72271759  0.37891701  0.48849855  1
  Li  Li234  1  0.55155627  0.45820086  0.44077745  1
  Li  Li235  1  0.76269922  0.53468662  0.51434515  1
  Li  Li236  1  0.67171722  0.52651433  0.56677745  1
  Li  Li237  1  0.52553301  0.56084898  0.61211635  1
  Li  Li238  1  0.71459150  0.54699929  0.62725971  1
  Li  Li239  1  0.79875721  0.58509416  0.70882460  1
  Li  Li240  1  0.01378858  0.61747360  0.72949102  1
  Li  Li241  1  0.73253939  0.66825763  0.82464225  1
  Li  Li242  1  0.70339026  0.59322911  0.86060585  1
  Li  Li243  1  0.88478319  0.57551878  0.48783166  1
  Li  Li244  1  0.66251494  0.55717204  0.48413455  1
  Li  Li245  1  0.71664695  0.72500287  0.56539674  1
  Li  Li246  1  0.71085552  0.67416398  0.59629322  1
  Li  Li247  1  0.84618455  0.75150225  0.64079916  1
  Li  Li248  1  0.11627618  0.77507895  0.65612234  1
  Li  Li249  1  0.85167176  0.82342857  0.70807349  1
  Li  Li250  1  0.82949030  0.69625458  0.74007543  1
  Li  Li251  1  0.97714287  0.93305162  0.79099916  1
  Li  Li252  1  0.93032765  0.81088829  0.81573015  1
  Li  Li253  1  0.75532962  0.74888172  0.50781821  1
  Li  Li254  1  0.78503301  0.64062997  0.43627651  1
  Li  Li255  1  0.74740612  0.96051404  0.55533564  1
  Li  Li256  1  0.91266671  0.88421555  0.58614970  1
  Li  Li257  1  0.83689982  0.88023364  0.61631279  1
  Li  Li258  1  0.00001864  0.85628919  0.67464185  1
  Li  Li259  1  0.94901799  0.04821011  0.71294871  1
  Li  Li260  1  0.02479669  0.85577531  0.72897413  1
  Li  Li261  1  0.00409258  0.04713893  0.82563413  1
  Li  Li262  1  0.01544408  0.81186068  0.87305773  1
  Li  Li263  1  0.77859396  0.83256819  0.53259902  1
  Li  Li264  1  0.67163456  0.14490006  0.48717688  1
  Li  Li265  1  0.84354384  0.23747781  0.55924721  1
  Li  Li266  1  0.74414649  0.11491250  0.59444732  1
  Li  Li267  1  0.88631377  0.12102996  0.62525270  1
  Li  Li268  1  0.89405348  0.19082273  0.69223292  1
  Li  Li269  1  0.86564478  0.22967476  0.72252413  1
  Li  Li270  1  0.13247398  0.02873533  0.75729245  1
  Li  Li271  1  0.75025447  0.27703846  0.80557066  1
  Li  Li272  1  0.09333761  0.13019874  0.87812184  1
  Li  Li273  1  0.76338366  0.05296320  0.52441613  1
  Li  Li274  1  0.79939461  0.10176595  0.44067970  1
  Li  Li275  1  0.88903508  0.30511212  0.53091343  1
  Li  Li276  1  0.90131191  0.30498091  0.60714657  1
  Li  Li277  1  0.86810576  0.44538193  0.62291144  1
  Li  Li278  1  0.83436034  0.31122879  0.67369102  1
  Li  Li279  1  0.79950813  0.35790103  0.71036338  1
  Li  Li280  1  0.94291507  0.35873484  0.78129483  1
  Li  Li281  1  0.95403706  0.52189505  0.80975405  1
  Li  Li282  1  0.80735594  0.16515914  0.82995631  1
  Li  Li283  1  0.91133468  0.38702496  0.50532714  1
  Li  Li284  1  0.69273040  0.23749753  0.45893419  1
  Li  Li285  1  0.73074150  0.39633381  0.54360003  1
  Li  Li286  1  0.03077345  0.41309001  0.56013780  1
  Li  Li287  1  0.91986377  0.49679256  0.59139164  1
  Li  Li288  1  0.01618760  0.49246810  0.65791667  1
  Li  Li289  1  0.99284593  0.45303452  0.69361942  1
  Li  Li290  1  0.11845675  0.51439147  0.76083190  1
  Li  Li291  1  0.94238390  0.60501399  0.84022024  1
  Li  Li292  1  0.09219582  0.47203667  0.85669252  1
  Li  Li293  1  0.91142719  0.33878632  0.47659827  1
  Li  Li294  1  0.76955566  0.47617769  0.45954613  1
  Li  Li295  1  0.78564353  0.61894525  0.53937417  1
  Li  Li296  1  0.87649182  0.50982994  0.56217357  1
  Li  Li297  1  0.90845162  0.66285865  0.60829456  1
  Li  Li298  1  0.99491466  0.64153880  0.63559147  1
  Li  Li299  1  0.88118913  0.61808216  0.66798184  1
  Li  Li300  1  0.08586946  0.73382648  0.75210065  1
  Li  Li301  1  0.94449917  0.71285982  0.78806094  1
  Li  Li302  1  0.78622109  0.39811919  0.88619271  1
  Li  Li303  1  0.01162638  0.59743717  0.51214203  1
  Li  Li304  1  0.99181669  0.55612058  0.45860704  1
  Li  Li305  1  0.97213351  0.78550441  0.52839949  1
  Li  Li306  1  0.88225900  0.68939463  0.57699765  1
  Li  Li307  1  0.03307361  0.87778028  0.60688207  1
  Li  Li308  1  0.20688301  0.60705738  0.64250284  1
  Li  Li309  1  0.99686986  0.72462422  0.69820547  1
  Li  Li310  1  0.18961356  0.72867154  0.71039603  1
  Li  Li311  1  0.14215069  0.86821382  0.77960192  1
  Li  Li312  1  0.93622564  0.58627156  0.86986124  1
  Li  Li313  1  0.85954388  0.69863309  0.46830815  1
  Li  Li314  1  0.97073595  0.81244081  0.45232760  1
  Li  Li315  1  0.91536653  0.89063380  0.55786186  1
  Li  Li316  1  0.11775146  0.80713348  0.58469484  1
  Li  Li317  1  0.95619246  0.99135126  0.64793680  1
  Li  Li318  1  0.07893614  0.85392488  0.63324027  1
  Li  Li319  1  0.12408116  0.96095582  0.70165423  1
  Li  Li320  1  0.25819118  0.85601128  0.73703890  1
  Li  Li321  1  0.14861779  0.12392936  0.78684583  1
  Li  Li322  1  0.13580330  0.73788525  0.89363375  1
  Li  Li323  1  0.94323207  0.76077204  0.49584010  1
  Li  Li324  1  0.78390687  0.86308671  0.45287556  1
  Li  Li325  1  0.92313930  0.11481960  0.54419404  1
  Li  Li326  1  0.96756135  0.10210872  0.59953668  1
  Li  Li327  1  0.86177869  0.12664437  0.66041509  1
  Li  Li328  1  0.00923477  0.05627918  0.68094565  1
  Li  Li329  1  0.08196369  0.26799660  0.71010247  1
  Li  Li330  1  0.20020430  0.11064857  0.72994632  1
  Li  Li331  1  0.93319343  0.09444798  0.76976093  1
  Li  Li332  1  0.05234876  0.92768742  0.89659324  1
  Li  Li333  1  0.74120140  0.95905537  0.49478543  1
  Li  Li334  1  0.89774581  0.14209962  0.46688619  1
  Li  Li335  1  0.05102802  0.18520515  0.51663556  1
  Li  Li336  1  0.87829298  0.06910214  0.57476256  1
  Li  Li337  1  0.99056837  0.28931069  0.64618877  1
  Li  Li338  1  0.08121576  0.30623817  0.67602907  1
  Li  Li339  1  0.03137083  0.40792212  0.73350013  1
  Li  Li340  1  0.11327212  0.27295908  0.76111778  1
  Li  Li341  1  0.99765109  0.21329031  0.80533144  1
  Li  Li342  1  0.95672447  0.29029859  0.87503904  1
  Li  Li343  1  0.86046464  0.16953023  0.49799513  1
  Li  Li344  1  0.90766766  0.35838389  0.44952853  1
  Li  Li345  1  0.09271464  0.41194240  0.52114645  1
  Li  Li346  1  0.99368893  0.28456042  0.58252594  1
  Li  Li347  1  0.06692657  0.49505005  0.62316149  1
  Li  Li348  1  0.30475586  0.43036560  0.69734695  1
  Li  Li349  1  0.20321019  0.52738280  0.71330476  1
  Li  Li350  1  0.17184081  0.40741257  0.78735702  1
  Li  Li351  1  0.15123039  0.62730686  0.78713299  1
  Li  Li352  1  0.21141504  0.36293643  0.87530040  1
  Li  Li353  1  0.08934678  0.33139622  0.49408471  1
  Li  Li354  1  0.10369113  0.48254714  0.43056664  1
  Li  Li355  1  0.95647886  0.52253380  0.53643579  1
  Li  Li356  1  0.12902299  0.48955615  0.59498322  1
  Li  Li357  1  0.13644511  0.68257189  0.61146645  1
  Li  Li358  1  0.24131605  0.53817578  0.66886103  1
  Li  Li359  1  0.14790964  0.63225290  0.68564388  1
  Li  Li360  1  0.23779276  0.63253898  0.73727168  1
  Li  Li361  1  0.14485662  0.76517090  0.80888611  1
  Li  Li362  1  0.15178418  0.61771427  0.83314823  1
  Li  Li363  1  0.07130906  0.54621794  0.48484375  1
  Li  Li364  1  0.05217182  0.67370676  0.43494077  1
  Li  Li365  1  0.00231475  0.70577067  0.55569705  1
  Li  Li366  1  0.10548473  0.61145961  0.57353959  1
  Li  Li367  1  0.24162307  0.91551496  0.60759577  1
  Li  Li368  1  0.33454760  0.77427568  0.66571207  1
  Li  Li369  1  0.24427601  0.87374988  0.68537079  1
  Li  Li370  1  0.29770848  0.78167970  0.76683211  1
  Li  Li371  1  0.36494078  0.86839147  0.79811548  1
  Li  Li372  1  0.34414058  0.88415670  0.82766552  1
  Li  Li373  1  0.15590087  0.75877073  0.53263267  1
  Li  Li374  1  0.11555013  0.75447063  0.46987481  1
  Li  Li375  1  0.14061279  0.91216810  0.56055897  1
  Li  Li376  1  0.32932920  0.96357455  0.58045527  1
  Li  Li377  1  0.09071201  0.05188434  0.62172984  1
  Li  Li378  1  0.28524011  0.82524463  0.63286643  1
  Li  Li379  1  0.30186974  0.95404521  0.71439955  1
  Li  Li380  1  0.47966709  0.91688118  0.73556513  1
  Li  Li381  1  0.18832683  0.97405097  0.80788134  1
  Li  Li382  1  0.09733452  0.83104879  0.83995249  1
  Li  Li383  1  0.17073004  0.79014063  0.50190993  1
  Li  Li384  1  0.04039937  0.22082720  0.44250415  1
  Li  Li385  1  0.09617165  0.01635897  0.53691361  1
  Li  Li386  1  0.11502013  0.03393035  0.58249322  1
  Li  Li387  1  0.13241629  0.16896941  0.65149267  1
  Li  Li388  1  0.20424888  0.01530324  0.66690105  1
  Li  Li389  1  0.35162961  0.24327902  0.71178450  1
  Li  Li390  1  0.33208152  0.03404165  0.78144577  1
  Li  Li391  1  0.05515913  0.24672620  0.84934677  1
  Li  Li392  1  0.23169511  0.97718881  0.86952101  1
  Li  Li393  1  0.93380225  0.95923973  0.51088033  1
  Li  Li394  1  0.87864450  0.91264665  0.47719621  1
  Li  Li395  1  0.30421179  0.41248625  0.51108032  1
  Li  Li396  1  0.10006081  0.28257240  0.61990508  1
  Li  Li397  1  0.20164520  0.40381722  0.64783271  1
  Li  Li398  1  0.21939190  0.16303992  0.69137809  1
  Li  Li399  1  0.20941346  0.33147664  0.73448286  1
  Li  Li400  1  0.22178695  0.23560996  0.81555371  1
  Li  Li401  1  0.91572504  0.37902012  0.83291650  1
  Li  Li402  1  0.18863719  0.20156156  0.90541585  1
  Li  Li403  1  0.04024299  0.09378743  0.48876034  1
  Li  Li404  1  0.07877769  0.30530242  0.41561927  1
  Li  Li405  1  0.14816057  0.30591186  0.54102319  1
  Li  Li406  1  0.08827622  0.16570450  0.56391617  1
  Li  Li407  1  0.28755649  0.44360337  0.62103203  1
  Li  Li408  1  0.41468481  0.28847789  0.73825696  1
  Li  Li409  1  0.31715295  0.44131527  0.75699974  1
  Li  Li410  1  0.38915356  0.47997846  0.81287041  1
  Li  Li411  1  0.12063622  0.42615269  0.81986308  1
  Li  Li412  1  0.22573519  0.43955653  0.90376616  1
  Li  Li413  1  0.28751636  0.51623138  0.48732049  1
  Li  Li414  1  0.14794953  0.43567901  0.46340621  1
  Li  Li415  1  0.16495452  0.55727751  0.54592293  1
  Li  Li416  1  0.23475361  0.40425254  0.56866823  1
  Li  Li417  1  0.39351279  0.68213269  0.62048988  1
  Li  Li418  1  0.51951999  0.56119816  0.67765570  1
  Li  Li419  1  0.37574152  0.68420993  0.69191314  1
  Li  Li420  1  0.35240306  0.58323773  0.78006121  1
  Li  Li421  1  0.30744503  0.65894933  0.80938355  1
  Li  Li422  1  0.30897710  0.61030421  0.87610403  1
  Li  Li423  1  0.20435676  0.61016211  0.51052975  1
  Li  Li424  1  0.22939089  0.63924745  0.45211101  1
  Li  Li425  1  0.27159201  0.79145136  0.55880543  1
  Li  Li426  1  0.31163925  0.72742372  0.59381040  1
  Li  Li427  1  0.51978903  0.85532871  0.63998016  1
  Li  Li428  1  0.61964434  0.79375050  0.70170210  1
  Li  Li429  1  0.68667275  0.01027645  0.71538846  1
  Li  Li430  1  0.50834979  0.78999438  0.77803204  1
  Li  Li431  1  0.59177505  0.00156082  0.80164320  1
  Li  Li432  1  0.42259233  0.87944765  0.85889127  1
  Li  Li433  1  0.28172134  0.70052302  0.48558537  1
  Li  Li434  1  0.34511903  0.86023806  0.46379023  1
  Li  Li435  1  0.16807375  0.99744892  0.51372790  1
  Li  Li436  1  0.52132402  0.92301629  0.58764971  1
  Li  Li437  1  0.43504754  0.91492836  0.61247828  1
  Li  Li438  1  0.44036983  0.97717492  0.66212397  1
  Li  Li439  1  0.50147350  0.94864419  0.69400251  1
  Li  Li440  1  0.52486865  0.97636648  0.76595061  1
  Li  Li441  1  0.40439009  0.11852297  0.81324776  1
  Li  Li442  1  0.41661609  0.08305019  0.84697133  1
  Li  Li443  1  0.36919463  0.81763005  0.51191322  1
  Li  Li444  1  0.11198677  0.01841074  0.92622489  1
  Li  Li445  1  0.30051340  0.18761231  0.00428869  1
  Li  Li446  1  0.27328399  0.28705948  0.97856050  1
  Li  Li447  1  0.24207428  0.13212970  0.95320657  1
  Li  Li448  1  0.61286061  0.47247539  0.05795673  1
  Li  Li449  1  0.39867133  0.45338374  0.00252368  1
  Li  Li450  1  0.16036820  0.25419988  0.93289647  1
  Li  Li451  1  0.54672574  0.73322576  0.05261363  1
  Li  Li452  1  0.54421444  0.60723923  0.02730530  1
  Li  Li453  1  0.25153003  0.50455094  0.93344354  1
  Li  Li454  1  0.45648019  0.80465340  0.02908562  1
  Li  Li455  1  0.52652681  0.71136283  0.99758071  1
  Li  Li456  1  0.31296794  0.69559272  0.91184596  1
  Li  Li457  1  0.56536266  0.00330940  0.00214171  1
  Li  Li458  1  0.58765326  0.72248950  0.96243467  1
  Li  Li459  1  0.50402573  0.83369701  0.93665464  1
  Li  Li460  1  0.63650970  0.98641253  0.04040429  1
  Li  Li461  1  0.50815055  0.04753269  0.94282598  1
  Li  Li462  1  0.30612104  0.06291047  0.89991714  1
  Li  Li463  1  0.65492054  0.20561993  0.02228616  1
  Li  Li464  1  0.59527729  0.09392220  0.97433252  1
  Li  Li465  1  0.48196118  0.23780657  0.96019762  1
  Li  Li466  1  0.56281292  0.19482758  0.05060770  1
  Li  Li467  1  0.45807030  0.32071916  0.02662778  1
  Li  Li468  1  0.38525589  0.39408103  0.95067132  1
  Li  Li469  1  0.76336349  0.66029702  0.03714774  1
  Li  Li470  1  0.65025975  0.50977840  0.00699340  1
  Li  Li471  1  0.47847449  0.61235629  0.93047046  1
  Li  Li472  1  0.71244480  0.83860947  0.01762703  1
  Li  Li473  1  0.73386881  0.71614791  0.98718706  1
  Li  Li474  1  0.67985782  0.73375469  0.93042055  1
  Li  Li475  1  0.83013874  0.08303050  0.01850564  1
  Li  Li476  1  0.69455902  0.91636779  0.98672066  1
  Li  Li477  1  0.91061561  0.83737113  0.92314684  1
  Li  Li478  1  0.82707712  0.22063013  0.04726961  1
  Li  Li479  1  0.70449868  0.95857566  0.94372934  1
  Li  Li480  1  0.56577511  0.03515638  0.91055844  1
  Li  Li481  1  0.80055924  0.17353481  0.95816528  1
  Li  Li482  1  0.60189559  0.26813461  0.93373117  1
  Li  Li483  1  0.44138021  0.39120043  0.92164856  1
  Li  Li484  1  0.70845410  0.41052214  0.03179541  1
  Li  Li485  1  0.69250932  0.35047249  0.97853284  1
  Li  Li486  1  0.53982131  0.27523652  0.99844086  1
  Li  Li487  1  0.04034153  0.57023547  0.02997346  1
  Li  Li488  1  0.86323215  0.44781400  0.00455828  1
  Li  Li489  1  0.51965519  0.48933238  0.97763184  1
  Li  Li490  1  0.92353319  0.70480050  0.01141147  1
  Li  Li491  1  0.83920848  0.56432670  0.97817516  1
  Li  Li492  1  0.87456118  0.60439355  0.93195338  1
  Li  Li493  1  0.90753519  0.93464586  0.00064257  1
  Li  Li494  1  0.80808506  0.72177438  0.95529087  1
  Li  Li495  1  0.92538604  0.66280576  0.90027089  1
  Li  Li496  1  0.82594835  0.90438020  0.05317495  1
  Li  Li497  1  0.89188979  0.98217855  0.96530648  1
  Li  Li498  1  0.74692396  0.94019984  0.91194063  1
  Li  Li499  1  0.92364584  0.16331874  0.98454488  1
  Li  Li500  1  0.78978853  0.17728281  0.92580758  1
  Li  Li501  1  0.56243232  0.26405543  0.90352889  1
  Li  Li502  1  0.75029494  0.20000881  0.99825769  1
  Li  Li503  1  0.96050655  0.38735632  0.97554721  1
  Li  Li504  1  0.79797440  0.40435561  0.94678902  1
  Li  Li505  1  0.87319186  0.48575773  0.05528532  1
  Li  Li506  1  0.96147206  0.33717775  0.02496191  1
  Li  Li507  1  0.67586418  0.50726217  0.91671799  1
  Li  Li508  1  0.99224792  0.73642731  0.05241516  1
  Li  Li509  1  0.19758013  0.81467793  0.02970671  1
  Li  Li510  1  0.04753492  0.62009349  0.95459404  1
  Li  Li511  1  0.96966552  0.91954685  0.03000199  1
  Li  Li512  1  0.97685396  0.80544938  0.98376830  1
  Li  Li513  1  0.04831804  0.88660939  0.95123284  1
  Li  Li514  1  0.12947230  0.96467215  0.06350967  1
  Li  Li515  1  0.10659070  0.04555781  0.97991665  1
  Li  Li516  1  0.85619249  0.93172442  0.88309479  1
  Li  Li517  1  0.07074804  0.15197725  0.01185034  1
  Li  Li518  1  0.01470844  0.37743505  0.94091871  1
  Li  Li519  1  0.76869684  0.18661684  0.89043549  1
  Li  Li520  1  0.02602304  0.14822314  0.04810369  1
  Li  Li521  1  0.13912731  0.39594543  0.99935743  1
  Li  Li522  1  0.80929116  0.38522306  0.91396305  1
  Li  Li523  1  0.10491771  0.42312675  0.05150227  1
  Li  Li524  1  0.15692198  0.48285628  0.96203847  1
  Li  Li525  1  0.06533836  0.53943988  0.91872786  1
  Li  Li526  1  0.22604401  0.65624051  0.05357686  1
  Li  Li527  1  0.09704434  0.62634266  0.99675223  1
  Li  Li528  1  0.10668365  0.76026513  0.92657816  1
  Li  Li529  1  0.13953947  0.91321291  0.00597764  1
  Li  Li530  1  0.18857050  0.80940772  0.97419918  1
  Li  Li531  1  0.28565937  0.94139790  0.95222069  1
  Li  Li532  1  0.38027341  0.91399848  0.05170742  1
  Li  Li533  1  0.35077064  0.05138764  0.98240553  1
  Li  Li534  1  0.94946724  0.09906647  0.93901779  1
  Li  Li535  1  0.20944500  0.05485523  0.03198253  1
  Li  Li536  1  0.07038687  0.23743510  0.96086757  1
  Li  Li537  1  0.94822202  0.08187572  0.90676604  1
  Li  Li538  1  0.28913045  0.22955356  0.05521263  1
  Li  Li539  1  0.22436430  0.34686006  0.02680440  1
  Li  Li540  1  0.00911105  0.30949456  0.91307205  1
  Li  Li541  1  0.37880732  0.48424462  0.04878209  1
  Li  Li542  1  0.34472819  0.62480819  0.97942321  1
  Li  Li543  1  0.07395927  0.51034591  0.88806775  1
  Li  Li544  1  0.27347104  0.59558716  0.02191377  1
  Li  Li545  1  0.27380333  0.71820808  0.94662645  1
  Li  Li546  1  0.18472638  0.72981048  0.86485119  1
  Li  Li547  1  0.34672462  0.82766619  0.00407011  1
  Li  Li548  1  0.45013387  0.86544419  0.97174080  1
  Li  Li549  1  0.32032718  0.92193941  0.92076140  1
  Li  Li550  1  0.41456554  0.04700611  0.02193707  1
  Li  Li551  1  0.37234132  0.16358760  0.92771734  1
  La  La552  1  0.67032352  0.84301928  0.15192888  1
  La  La553  1  0.60611857  0.14569129  0.16190510  1
  La  La554  1  0.75361173  0.49974951  0.16194475  1
  La  La555  1  0.11981483  0.16747882  0.18486859  1
  La  La556  1  0.23987131  0.51034451  0.18216846  1
  La  La557  1  0.64669955  0.30833113  0.19467117  1
  La  La558  1  0.14592509  0.82464220  0.19718493  1
  La  La559  1  0.83756519  0.87273969  0.20736186  1
  La  La560  1  0.44491552  0.75399828  0.20588763  1
  La  La561  1  0.80432256  0.35347420  0.23107187  1
  La  La562  1  0.43760800  0.23427014  0.23141005  1
  La  La563  1  0.64156754  0.81044766  0.24064615  1
  La  La564  1  0.14002965  0.32602227  0.24326145  1
  La  La565  1  0.06990275  0.62777280  0.25472127  1
  La  La566  1  0.16099290  0.00075645  0.25544399  1
  La  La567  1  0.55630381  0.65180345  0.27726906  1
  La  La568  1  0.69088362  0.01626133  0.27833904  1
  La  La569  1  0.12872708  0.82962084  0.28933166  1
  La  La570  1  0.62874806  0.33414326  0.28996057  1
  La  La571  1  0.30159678  0.39081779  0.30241117  1
  La  La572  1  0.94744139  0.28766834  0.30123444  1
  La  La573  1  0.32018731  0.90992648  0.32408970  1
  La  La574  1  0.87073120  0.75526562  0.32419207  1
  La  La575  1  0.11473008  0.32827351  0.33727228  1
  La  La576  1  0.60067960  0.85268205  0.33798423  1
  La  La577  1  0.53927517  0.15970953  0.34846784  1
  La  La578  1  0.63455191  0.53298927  0.34845698  1
  La  La579  1  0.01040499  0.14795188  0.37066968  1
  La  La580  1  0.16939884  0.57185442  0.36971309  1
  La  La581  1  0.57807810  0.36611639  0.38112517  1
  La  La582  1  0.09299116  0.85375793  0.38241524  1
  La  La583  1  0.77470684  0.92540591  0.39496898  1
  La  La584  1  0.40066641  0.80857428  0.39712533  1
  La  La585  1  0.83854372  0.44192725  0.41333388  1
  La  La586  1  0.41552426  0.28955001  0.41339635  1
  La  La587  1  0.61767332  0.83009463  0.42895322  1
  Zr  Zr588  1  0.90921846  0.30015693  0.17309682  1
  Zr  Zr589  1  0.41140892  0.32232906  0.16917343  1
  Zr  Zr590  1  0.91291894  0.80802852  0.17169284  1
  Zr  Zr591  1  0.39925868  0.81824703  0.16923854  1
  Zr  Zr592  1  0.13116158  0.07699937  0.22022287  1
  Zr  Zr593  1  0.15059500  0.58334176  0.21984658  1
  Zr  Zr594  1  0.61968701  0.04098364  0.21834760  1
  Zr  Zr595  1  0.64388071  0.54814050  0.21848860  1
  Zr  Zr596  1  0.37335709  0.84314048  0.26596725  1
  Zr  Zr597  1  0.87029076  0.82609209  0.26685263  1
  Zr  Zr598  1  0.37575270  0.33850181  0.26779128  1
  Zr  Zr599  1  0.87233290  0.33753583  0.26644015  1
  Zr  Zr600  1  0.58277208  0.58176825  0.31453450  1
  Zr  Zr601  1  0.61930980  0.09476336  0.31470111  1
  Zr  Zr602  1  0.10828146  0.57886800  0.31460406  1
  Zr  Zr603  1  0.11145651  0.07687604  0.31407820  1
  Zr  Zr604  1  0.82687402  0.35660773  0.36349974  1
  Zr  Zr605  1  0.33876990  0.37199569  0.36187397  1
  Zr  Zr606  1  0.84342193  0.86011103  0.36006365  1
  Zr  Zr607  1  0.36333402  0.87934846  0.36141545  1
  Zr  Zr608  1  0.10830439  0.11320534  0.40557152  1
  Zr  Zr609  1  0.12374808  0.62390305  0.40751819  1
  Zr  Zr610  1  0.60670024  0.08833910  0.41240340  1
  Zr  Zr611  1  0.62430569  0.59177412  0.40915474  1
  O  O612  1  0.88952312  0.92422795  0.15468530  1
  O  O613  1  0.47866873  0.73670354  0.15443846  1
  O  O614  1  0.77505292  0.31382597  0.15840951  1
  O  O615  1  0.47930311  0.24053881  0.15396049  1
  O  O616  1  0.34959525  0.95269397  0.16126001  1
  O  O617  1  0.93327755  0.64395865  0.16583633  1
  O  O618  1  0.97703663  0.17031377  0.16741758  1
  O  O619  1  0.36010019  0.47616687  0.16424269  1
  O  O620  1  0.05504049  0.45403927  0.16873772  1
  O  O621  1  0.25985917  0.17344634  0.16639173  1
  O  O622  1  0.70769745  0.69351111  0.16558945  1
  O  O623  1  0.58883977  0.93823264  0.16728693  1
  O  O624  1  0.24522330  0.69429673  0.16236666  1
  O  O625  1  0.09133559  0.89982592  0.17413486  1
  O  O626  1  0.57360892  0.42298203  0.17726293  1
  O  O627  1  0.74911164  0.16442083  0.18248121  1
  O  O628  1  0.82201943  0.43626807  0.18326754  1
  O  O629  1  0.48091486  0.19269721  0.18255565  1
  O  O630  1  0.79490273  0.88221574  0.18242789  1
  O  O631  1  0.43753128  0.66620974  0.18361159  1
  O  O632  1  0.29582295  0.33209993  0.18920401  1
  O  O633  1  0.98515014  0.31009859  0.19353452  1
  O  O634  1  0.36237609  0.87917759  0.18997069  1
  O  O635  1  0.92404242  0.75040562  0.19393294  1
  O  O636  1  0.06877600  0.60597604  0.19973413  1
  O  O637  1  0.21392102  0.05462329  0.20029440  1
  O  O638  1  0.65762450  0.63540113  0.19950519  1
  O  O639  1  0.64556872  0.91045448  0.20493077  1
  O  O640  1  0.99012513  0.10356148  0.20805492  1
  O  O641  1  0.29056662  0.53492800  0.20971330  1
  O  O642  1  0.48045304  0.10173739  0.21299851  1
  O  O643  1  0.77866549  0.47148046  0.21233389  1
  O  O644  1  0.51571684  0.38617021  0.21062271  1
  O  O645  1  0.75703996  0.19958648  0.21411028  1
  O  O646  1  0.26666732  0.75732667  0.21931952  1
  O  O647  1  0.03246005  0.89857365  0.21778053  1
  O  O648  1  0.20956873  0.26188502  0.22089213  1
  O  O649  1  0.03599049  0.40587798  0.22454625  1
  O  O650  1  0.50554065  0.88957516  0.22918790  1
  O  O651  1  0.77534991  0.70599766  0.22576186  1
  O  O652  1  0.77546070  0.98431929  0.22852630  1
  O  O653  1  0.52364595  0.64432633  0.22780220  1
  O  O654  1  0.03959007  0.66887404  0.22988658  1
  O  O655  1  0.27290063  0.06601622  0.23241546  1
  O  O656  1  0.61547762  0.12098660  0.23814367  1
  O  O657  1  0.64117272  0.45147360  0.23851582  1
  O  O658  1  0.04484786  0.10654251  0.24053554  1
  O  O659  1  0.22627212  0.56539686  0.24079098  1
  O  O660  1  0.36479999  0.40899904  0.24722635  1
  O  O661  1  0.86234975  0.23888462  0.24776866  1
  O  O662  1  0.25620421  0.84049387  0.24917192  1
  O  O663  1  0.97384439  0.85445541  0.24906239  1
  O  O664  1  0.84488218  0.47798487  0.25497574  1
  O  O665  1  0.44460194  0.22113069  0.25775894  1
  O  O666  1  0.43252899  0.70972517  0.25854150  1
  O  O667  1  0.80341249  0.96968119  0.25886872  1
  O  O668  1  0.51628154  0.98981224  0.26380798  1
  O  O669  1  0.71494949  0.68637039  0.25790491  1
  O  O670  1  0.20921720  0.21534031  0.26634052  1
  O  O671  1  0.05995334  0.42753523  0.26406105  1
  O  O672  1  0.68971242  0.26158588  0.26894158  1
  O  O673  1  0.55577434  0.45875767  0.27020991  1
  O  O674  1  0.01439765  0.94702025  0.27623838  1
  O  O675  1  0.19930060  0.68672201  0.27505394  1
  O  O676  1  0.28819171  0.94340573  0.27699626  1
  O  O677  1  0.92835114  0.70344783  0.27844047  1
  O  O678  1  0.31705151  0.46455334  0.27731703  1
  O  O679  1  0.91999342  0.19717418  0.27745525  1
  O  O680  1  0.73311723  0.82080666  0.28325738  1
  O  O681  1  0.45682131  0.81999039  0.28517476  1
  O  O682  1  0.85161832  0.42053592  0.28793059  1
  O  O683  1  0.39329490  0.25808091  0.28995133  1
  O  O684  1  0.53325751  0.10236057  0.29535754  1
  O  O685  1  0.68150951  0.56011225  0.29569594  1
  O  O686  1  0.10817043  0.19280724  0.29781378  1
  O  O687  1  0.10809689  0.46022753  0.29749960  1
  O  O688  1  0.47015757  0.63307442  0.30217313  1
  O  O689  1  0.74960382  0.04408850  0.30289451  1
  O  O690  1  0.97448040  0.64114299  0.30751759  1
  O  O691  1  0.23261888  0.01232623  0.30362616  1
  O  O692  1  0.94979576  0.93045017  0.30805697  1
  O  O693  1  0.24979156  0.72942442  0.30957583  1
  O  O694  1  0.71174641  0.29093544  0.31225407  1
  O  O695  1  0.47925866  0.41091138  0.31710867  1
  O  O696  1  0.68823934  0.77211868  0.31781442  1
  O  O697  1  0.51281766  0.91307008  0.31794595  1
  O  O698  1  0.97604898  0.40043477  0.32403166  1
  O  O699  1  0.23970634  0.22585115  0.32373131  1
  O  O700  1  0.25653386  0.50656302  0.32237309  1
  O  O701  1  0.99226998  0.14002153  0.32629039  1
  O  O702  1  0.46913872  0.12276746  0.32415947  1
  O  O703  1  0.72896699  0.55347539  0.32513526  1
  O  O704  1  0.11575823  0.63323199  0.33508478  1
  O  O705  1  0.13423189  0.97349203  0.33261413  1
  O  O706  1  0.50030031  0.62502515  0.33469971  1
  O  O707  1  0.68642056  0.09619652  0.33596146  1
  O  O708  1  0.84046427  0.93991300  0.34018228  1
  O  O709  1  0.37327975  0.79674873  0.34199247  1
  O  O710  1  0.72902973  0.36161727  0.34439969  1
  O  O711  1  0.46135101  0.35134632  0.34647744  1
  O  O712  1  0.33531429  0.03641278  0.35239573  1
  O  O713  1  0.90845647  0.73410999  0.34828183  1
  O  O714  1  0.91859358  0.25083009  0.35525421  1
  O  O715  1  0.27063419  0.49913012  0.35283099  1
  O  O716  1  0.97436320  0.50402309  0.36074517  1
  O  O717  1  0.20177276  0.22480507  0.35625100  1
  O  O718  1  0.67241709  0.74154318  0.35947655  1
  O  O719  1  0.54736306  0.97136076  0.35863967  1
  O  O720  1  0.17952450  0.79081561  0.36196614  1
  O  O721  1  0.02073055  0.95937548  0.36274114  1
  O  O722  1  0.49443113  0.50680381  0.36885727  1
  O  O723  1  0.66154357  0.20769402  0.36941685  1
  O  O724  1  0.75670118  0.51333718  0.36784190  1
  O  O725  1  0.38909736  0.26501843  0.37695078  1
  O  O726  1  0.80704435  0.99720632  0.37157763  1
  O  O727  1  0.40458552  0.74406520  0.37242636  1
  O  O728  1  0.17453023  0.38095538  0.37836646  1
  O  O729  1  0.86712264  0.36291813  0.38603947  1
  O  O730  1  0.36904212  0.95327260  0.38251876  1
  O  O731  1  0.86740758  0.78994207  0.38156406  1
  O  O732  1  0.03343245  0.63211616  0.38832047  1
  O  O733  1  0.16869224  0.07839216  0.38523106  1
  O  O734  1  0.60873570  0.72160464  0.39274510  1
  O  O735  1  0.61564509  0.98741738  0.39339676  1
  O  O736  1  0.96133209  0.15649276  0.39463761  1
  O  O737  1  0.26947966  0.60196785  0.39816524  1
  O  O738  1  0.50599139  0.16267668  0.39924121  1
  O  O739  1  0.75681702  0.55215041  0.39847789  1
  O  O740  1  0.48730265  0.45368830  0.39900167  1
  O  O741  1  0.73826908  0.24220319  0.41069937  1
  O  O742  1  0.21241440  0.81202700  0.40514281  1
  O  O743  1  0.98630163  0.93868126  0.40940620  1
  O  O744  1  0.21560651  0.28817238  0.40607918  1
  O  O745  1  0.04405053  0.44258351  0.41151402  1
  O  O746  1  0.47082839  0.91331210  0.42017031  1
  O  O747  1  0.75221812  0.72490784  0.42074977  1
  O  O748  1  0.75248131  0.02839132  0.42139579  1
  O  O749  1  0.47882182  0.65877222  0.42010037  1
  O  O750  1  0.97418827  0.66384290  0.41755933  1
  O  O751  1  0.25576040  0.07203826  0.41383821  1
  O  O752  1  0.52263477  0.15475470  0.42957131  1
  O  O753  1  0.62926949  0.44305028  0.42316276  1
  O  O754  1  0.02329036  0.15196745  0.42334803  1
  O  O755  1  0.20520937  0.63364793  0.42772246  1
