data_image0
_chemical_formula_structural       La2O6
_chemical_formula_sum              "La2 O6"
_cell_length_a       4.661293
_cell_length_b       4.880032514301724
_cell_length_c       7.597157739292438
_cell_angle_alpha    107.75589212234566
_cell_angle_beta     91.50697545222872
_cell_angle_gamma    116.69352998534309

_space_group_name_H-M_alt    "P 1"
_space_group_IT_number       1

loop_
  _space_group_symop_operation_xyz
  'x, y, z'

loop_
  _atom_site_type_symbol
  _atom_site_label
  _atom_site_symmetry_multiplicity
  _atom_site_fract_x
  _atom_site_fract_y
  _atom_site_fract_z
  _atom_site_occupancy
  La  La1       1.0  0.3804210004701044  0.01818300115103945  0.2629290002451847  1.0000
  La  La2       1.0  0.6195789995298957  0.9818169988489605  0.7370709997548154  1.0000
  O   O1        1.0  0.34972599899257656  0.7248029992735097  0.04175199988846282  1.0000
  O   O2        1.0  0.2910630006749396  0.1919319999873639  0.6081989997987544  1.0000
  O   O3        1.0  0.9041439998849786  0.15255600045587817  0.34489800051290204  1.0000
  O   O4        1.0  0.7089369993250604  0.8080680000126361  0.39180100020124575  1.0000
  O   O5        1.0  0.6502740010074235  0.2751970007264903  0.9582480001115373  1.0000
  O   O6        1.0  0.09585600011502146  0.8474439995441218  0.6551019994870979  1.0000
