# generated using pymatgen
data_Li70La3Zr2O12
_symmetry_space_group_name_H-M   'P 1'
_cell_length_a   13.00329028
_cell_length_b   13.49813161
_cell_length_c   76.76728353
_cell_angle_alpha   90.27410417
_cell_angle_beta   90.17722240
_cell_angle_gamma   90.35645152
_symmetry_Int_Tables_number   1
_chemical_formula_structural   Li70La3Zr2O12
_chemical_formula_sum   'Li840 La36 Zr24 O144'
_cell_volume   13473.72244667
_cell_formula_units_Z   12
loop_
 _symmetry_equiv_pos_site_id
 _symmetry_equiv_pos_as_xyz
  1  'x, y, z'
loop_
 _atom_site_type_symbol
 _atom_site_label
 _atom_site_symmetry_multiplicity
 _atom_site_fract_x
 _atom_site_fract_y
 _atom_site_fract_z
 _atom_site_occupancy
  Li  Li0  1  0.89382727  0.93304854  0.19059674  1
  Li  Li1  1  0.57960827  0.09350058  0.18898097  1
  Li  Li2  1  0.15262509  0.43013572  0.18517441  1
  Li  Li3  1  0.27234911  0.60628711  0.18276643  1
  Li  Li4  1  0.50660883  0.64772577  0.18667007  1
  Li  Li5  1  0.94031722  0.37146464  0.19951810  1
  Li  Li6  1  0.07393834  0.85257574  0.19343568  1
  Li  Li7  1  0.40482140  0.17437596  0.19449907  1
  Li  Li8  1  0.69217597  0.92819463  0.20277589  1
  Li  Li9  1  0.79590756  0.09274536  0.20468478  1
  Li  Li10  1  0.00774769  0.63276063  0.19042452  1
  Li  Li11  1  0.25861955  0.50526750  0.20564503  1
  Li  Li12  1  0.87420026  0.26509393  0.22268364  1
  Li  Li13  1  0.63159588  0.74883108  0.21741088  1
  Li  Li14  1  0.37509948  0.27370735  0.22084574  1
  Li  Li15  1  0.15239764  0.70029615  0.21136908  1
  Li  Li16  1  0.33495066  0.12215755  0.23259712  1
  Li  Li17  1  0.16155143  0.85209778  0.23027992  1
  Li  Li18  1  0.81626548  0.44342149  0.23640782  1
  Li  Li19  1  0.68784428  0.59401454  0.23821518  1
  Li  Li20  1  0.44243870  0.33506129  0.25006883  1
  Li  Li21  1  0.07892976  0.68246099  0.24351199  1
  Li  Li22  1  0.96663244  0.16663985  0.25211923  1
  Li  Li23  1  0.57270778  0.84544595  0.23976664  1
  Li  Li24  1  0.34105161  0.93570159  0.24790494  1
  Li  Li25  1  0.17689358  0.05195968  0.24774457  1
  Li  Li26  1  0.60132675  0.43791494  0.25326043  1
  Li  Li27  1  0.91798749  0.59657029  0.24797901  1
  Li  Li28  1  0.41060615  0.43444078  0.27548120  1
  Li  Li29  1  0.10365367  0.58998797  0.27335321  1
  Li  Li30  1  0.66592998  0.95024982  0.27628293  1
  Li  Li31  1  0.85458671  0.07683350  0.27594654  1
  Li  Li32  1  0.06641956  0.17317776  0.27833979  1
  Li  Li33  1  0.49380870  0.89009123  0.26686605  1
  Li  Li34  1  0.57157174  0.33439969  0.27936934  1
  Li  Li35  1  0.94119680  0.68085157  0.27770810  1
  Li  Li36  1  0.19457056  0.42276183  0.29162715  1
  Li  Li37  1  0.30087500  0.58728497  0.29048471  1
  Li  Li38  1  0.68705214  0.10853527  0.29340633  1
  Li  Li39  1  0.82384224  0.91912562  0.29432509  1
  Li  Li40  1  0.38174826  0.77794066  0.30194805  1
  Li  Li41  1  0.13022337  0.26104710  0.30659062  1
  Li  Li42  1  0.88032252  0.75565922  0.30553635  1
  Li  Li43  1  0.63155848  0.26953409  0.30663160  1
  Li  Li44  1  0.81867532  0.59484307  0.31733139  1
  Li  Li45  1  0.70617035  0.42609755  0.31878220  1
  Li  Li46  1  0.29922169  0.93369227  0.32166995  1
  Li  Li47  1  0.20902094  0.09453534  0.32053765  1
  Li  Li48  1  0.93510748  0.84571162  0.32857213  1
  Li  Li49  1  0.57403030  0.18704165  0.33087396  1
  Li  Li50  1  0.43639541  0.67747838  0.32366440  1
  Li  Li51  1  0.06745994  0.35311709  0.33395634  1
  Li  Li52  1  0.88038577  0.44108042  0.33651941  1
  Li  Li53  1  0.65724587  0.59166185  0.33351197  1
  Li  Li54  1  0.09913787  0.92964057  0.33764004  1
  Li  Li55  1  0.41749993  0.09116854  0.33665286  1
  Li  Li56  1  0.91863288  0.93312256  0.35683229  1
  Li  Li57  1  0.60622086  0.08247989  0.35768894  1
  Li  Li58  1  0.17064947  0.45221647  0.36122241  1
  Li  Li59  1  0.33738989  0.54878725  0.36384078  1
  Li  Li60  1  0.50676523  0.63257371  0.35061198  1
  Li  Li61  1  0.96797504  0.35874305  0.36260527  1
  Li  Li62  1  0.08692432  0.83298903  0.36672241  1
  Li  Li63  1  0.44359141  0.18657729  0.36367791  1
  Li  Li64  1  0.69545505  0.91697679  0.37500261  1
  Li  Li65  1  0.80856153  0.08478936  0.37457318  1
  Li  Li66  1  0.17059198  0.62773481  0.37528870  1
  Li  Li67  1  0.34306510  0.34622091  0.37964661  1
  Li  Li68  1  0.87369597  0.25828811  0.38897684  1
  Li  Li69  1  0.59665937  0.71884331  0.37731971  1
  Li  Li70  1  0.33632546  0.18268734  0.39721759  1
  Li  Li71  1  0.12936444  0.75019220  0.39380093  1
  Li  Li72  1  0.21637067  -0.05346488  0.40289310  1
  Li  Li73  1  0.03848581  0.87248481  0.41783042  1
  Li  Li74  1  0.79151351  0.42187062  0.40048449  1
  Li  Li75  1  0.69955496  0.61631775  0.40586850  1
  Li  Li76  1  0.40818376  0.35082635  0.40940448  1
  Li  Li77  1  0.06473179  0.66309994  0.42053613  1
  Li  Li78  1  0.94506504  0.15623210  0.41398631  1
  Li  Li79  1  0.60218779  0.80272717  0.40472691  1
  Li  Li80  1  0.25283114  0.79256991  0.42460924  1
  Li  Li81  1  0.10637827  0.06394375  0.41882177  1
  Li  Li82  1  0.56738947  0.41723516  0.42206465  1
  Li  Li83  1  0.89219237  0.59882179  0.41956835  1
  Li  Li84  1  0.94510893  -0.01114939  0.43804643  1
  Li  Li85  1  0.19848997  0.14635081  0.51397047  1
  Li  Li86  1  0.15235814  0.12630516  0.55929342  1
  Li  Li87  1  0.05599354  0.08620191  0.58617317  1
  Li  Li88  1  0.14779654  0.17419395  0.58974578  1
  Li  Li89  1  0.18594646  0.04230171  0.59458419  1
  Li  Li90  1  0.05737666  -0.00686854  0.60244054  1
  Li  Li91  1  0.11381469  0.18033931  0.62738463  1
  Li  Li92  1  0.05004502  0.05252372  0.62420205  1
  Li  Li93  1  0.98555255  0.03039870  0.47004063  1
  Li  Li94  1  0.16816501  0.23087952  0.47986880  1
  Li  Li95  1  0.14672938  0.26289256  0.53698613  1
  Li  Li96  1  0.05723919  0.19918390  0.56349858  1
  Li  Li97  1  0.15746417  0.31271366  0.58647226  1
  Li  Li98  1  0.12029216  0.26374254  0.60831180  1
  Li  Li99  1  0.10032398  0.12272654  0.60821382  1
  Li  Li100  1  0.17890560  0.32564318  0.62678777  1
  Li  Li101  1  0.08490570  0.26747414  0.64199480  1
  Li  Li102  1  0.96812526  0.28743612  0.47222056  1
  Li  Li103  1  0.11365081  0.42799336  0.48688894  1
  Li  Li104  1  0.11920024  0.42376636  0.52288484  1
  Li  Li105  1  0.08898916  0.37243608  0.56390620  1
  Li  Li106  1  0.20649990  0.48125329  0.57741433  1
  Li  Li107  1  0.13191520  0.44286617  0.59365627  1
  Li  Li108  1  0.08839771  0.39568569  0.61290410  1
  Li  Li109  1  0.18393259  0.46306301  0.62313825  1
  Li  Li110  1  0.09030242  0.40172422  0.63506107  1
  Li  Li111  1  1.02398300  0.52438307  0.46033598  1
  Li  Li112  1  0.13973210  0.63387713  0.48027089  1
  Li  Li113  1  0.10074509  0.62298320  0.53411112  1
  Li  Li114  1  0.07332032  0.47769906  0.55340383  1
  Li  Li115  1  0.13278674  0.70221814  0.58372129  1
  Li  Li116  1  0.13912788  0.56359579  0.58910293  1
  Li  Li117  1  0.03638152  0.52371212  0.60438202  1
  Li  Li118  1  0.09834139  0.69391727  0.61921144  1
  Li  Li119  1  0.04584021  0.57716612  0.63495563  1
  Li  Li120  1  0.02119556  0.74357173  0.45368959  1
  Li  Li121  1  0.13789739  0.73502408  0.50741519  1
  Li  Li122  1  0.18401808  0.82948811  0.53397847  1
  Li  Li123  1  0.03793627  0.75381285  0.55399120  1
  Li  Li124  1  0.19253732  0.81324543  0.58449816  1
  Li  Li125  1  0.10621090  0.77976906  0.60039363  1
  Li  Li126  1  0.06572099  0.64697880  0.60000086  1
  Li  Li127  1  0.16427496  0.80298229  0.62203012  1
  Li  Li128  1  0.00861163  0.73544011  0.63207751  1
  Li  Li129  1  0.07315610  0.86178828  0.48311540  1
  Li  Li130  1  0.12031233  0.97356790  0.51099242  1
  Li  Li131  1  0.20772713  0.99751412  0.54133127  1
  Li  Li132  1  0.05476986  0.92998306  0.55131433  1
  Li  Li133  1  0.16003041  0.98133121  0.57608486  1
  Li  Li134  1  0.14590773  0.91056036  0.59719766  1
  Li  Li135  1  0.04094220  0.86565750  0.61144468  1
  Li  Li136  1  0.14187120  0.94533635  0.62102180  1
  Li  Li137  1  0.03083765  0.91495564  0.63126133  1
  Li  Li138  1  0.18970795  0.03334118  0.47931000  1
  Li  Li139  1  0.35279985  0.14358199  0.49462469  1
  Li  Li140  1  0.30386460  0.23333400  0.55490922  1
  Li  Li141  1  0.25606156  0.11119032  0.57687917  1
  Li  Li142  1  0.36034445  0.19047771  0.58703583  1
  Li  Li143  1  0.27139708  0.13823489  0.60026012  1
  Li  Li144  1  0.23252423  0.05148314  0.61465285  1
  Li  Li145  1  0.32347803  0.16766545  0.62897016  1
  Li  Li146  1  0.20588873  0.06652635  0.63528835  1
  Li  Li147  1  0.23335709  0.24535767  0.42410807  1
  Li  Li148  1  0.26933152  0.35058050  0.50075946  1
  Li  Li149  1  0.34651655  0.27504354  0.52462216  1
  Li  Li150  1  0.23370516  0.28162549  0.57000157  1
  Li  Li151  1  0.28939156  0.37229517  0.58552345  1
  Li  Li152  1  0.26220942  0.25967549  0.59465823  1
  Li  Li153  1  0.22718709  0.21107693  0.61646554  1
  Li  Li154  1  0.31271311  0.30577198  0.62466716  1
  Li  Li155  1  0.22163773  0.23300909  0.64020195  1
  Li  Li156  1  0.08235969  0.17370246  0.44687928  1
  Li  Li157  1  0.28646504  0.51353272  0.47473944  1
  Li  Li158  1  0.26293473  0.53328080  0.51617574  1
  Li  Li159  1  0.25350514  0.41203299  0.54596425  1
  Li  Li160  1  0.32586433  0.49753586  0.57368308  1
  Li  Li161  1  0.29162676  0.47096927  0.59812484  1
  Li  Li162  1  0.22210381  0.36211971  0.60695792  1
  Li  Li163  1  0.32632767  0.43759841  0.61820984  1
  Li  Li164  1  0.27110308  0.41961010  0.63745306  1
  Li  Li165  1  0.21923142  0.62369392  0.44744448  1
  Li  Li166  1  0.33368734  0.67500064  0.49563781  1
  Li  Li167  1  0.29329759  0.69337928  0.53031110  1
  Li  Li168  1  0.22290004  0.60185798  0.55636182  1
  Li  Li169  1  0.26183522  0.66024914  0.57440853  1
  Li  Li170  1  0.27184570  0.60754075  0.59767445  1
  Li  Li171  1  0.16493748  0.57375083  0.61381037  1
  Li  Li172  1  0.35280706  0.63529272  0.61828666  1
  Li  Li173  1  0.28099552  0.54618862  0.62913038  1
  Li  Li174  1  0.25629524  0.78529840  0.46860341  1
  Li  Li175  1  0.34421959  0.99782759  0.52017571  1
  Li  Li176  1  0.34974120  0.88091465  0.54508460  1
  Li  Li177  1  0.20894371  0.74777214  0.56276481  1
  Li  Li178  1  0.33192005  0.83439565  0.58058299  1
  Li  Li179  1  0.30295226  0.73937689  0.59375340  1
  Li  Li180  1  0.19915705  0.70107963  0.60567822  1
  Li  Li181  1  0.30335167  0.76310701  0.61799255  1
  Li  Li182  1  0.26248628  0.69155785  0.63429257  1
  Li  Li183  1  0.14328406  0.91494205  0.44907722  1
  Li  Li184  1  0.30772766  0.13758108  0.54166568  1
  Li  Li185  1  0.30048829  1.00176915  0.56989602  1
  Li  Li186  1  0.21901993  0.88733521  0.56698953  1
  Li  Li187  1  0.33007152  1.03587283  0.59309183  1
  Li  Li188  1  0.26764469  0.92753692  0.59019603  1
  Li  Li189  1  0.23923379  0.83618100  0.60471863  1
  Li  Li190  1  0.31018134  0.95146969  0.61305576  1
  Li  Li191  1  0.25320224  0.87467702  0.63127450  1
  Li  Li192  1  0.27222743  0.01997259  0.43350297  1
  Li  Li193  1  0.48466004  0.12566881  0.52350635  1
  Li  Li194  1  0.46909401  0.17441077  0.55811984  1
  Li  Li195  1  0.38366599  0.09846377  0.57267661  1
  Li  Li196  1  0.48463731  0.18749403  0.58222255  1
  Li  Li197  1  0.45119390  0.08586420  0.59364429  1
  Li  Li198  1  0.37331843  0.07627670  0.61306439  1
  Li  Li199  1  0.45058543  0.15425454  0.62502704  1
  Li  Li200  1  0.38209627  0.04130707  0.63432916  1
  Li  Li201  1  0.30990718  0.17346347  0.45397829  1
  Li  Li202  1  0.38403608  0.33421065  0.47169957  1
  Li  Li203  1  0.50250596  0.25971659  0.54442711  1
  Li  Li204  1  0.41537525  0.30377434  0.57511691  1
  Li  Li205  1  0.55900653  0.28651805  0.57985934  1
  Li  Li206  1  0.46156127  0.28692976  0.59520067  1
  Li  Li207  1  0.36629801  0.21464925  0.60892578  1
  Li  Li208  1  0.45156589  0.30074157  0.61725338  1
  Li  Li209  1  0.42345255  0.25498836  0.63720310  1
  Li  Li210  1  0.19749344  0.38258768  0.45550683  1
  Li  Li211  1  0.42928473  0.48944770  0.49555678  1
  Li  Li212  1  0.44487769  0.42311363  0.52639877  1
  Li  Li213  1  0.41567562  0.38048608  0.55930465  1
  Li  Li214  1  0.50766778  0.53590780  0.57051065  1
  Li  Li215  1  0.48684088  0.45322054  0.58552850  1
  Li  Li216  1  0.36195783  0.35174004  0.60333233  1
  Li  Li217  1  0.46754389  0.43439308  0.61317871  1
  Li  Li218  1  0.41116576  0.39472056  0.63359279  1
  Li  Li219  1  0.43139711  0.63818892  0.46398281  1
  Li  Li220  1  0.56187870  0.65000635  0.48971352  1
  Li  Li221  1  0.48375779  0.62210048  0.52225767  1
  Li  Li222  1  0.38613628  0.54694206  0.54567242  1
  Li  Li223  1  0.40477974  0.65531442  0.55488251  1
  Li  Li224  1  0.38163888  0.62672949  0.58746083  1
  Li  Li225  1  0.38902810  0.53758129  0.60549516  1
  Li  Li226  1  0.49481388  0.66171354  0.61790602  1
  Li  Li227  1  0.43082154  0.54337998  0.62643748  1
  Li  Li228  1  0.42445924  0.79898221  0.44456359  1
  Li  Li229  1  0.46238448  0.81799543  0.48261800  1
  Li  Li230  1  0.42497620  0.80610916  0.51917372  1
  Li  Li231  1  0.37672567  0.77537250  0.55448716  1
  Li  Li232  1  0.47033253  0.86401985  0.58660176  1
  Li  Li233  1  0.42873094  0.73279570  0.58122677  1
  Li  Li234  1  0.41243253  0.72268117  0.60505089  1
  Li  Li235  1  0.49283546  0.80240378  0.61559320  1
  Li  Li236  1  0.40900565  0.72946679  0.62979123  1
  Li  Li237  1  0.27869530  0.87634137  0.49835199  1
  Li  Li238  1  0.49459906  0.98873728  0.49880396  1
  Li  Li239  1  0.41311189  1.03489005  0.55428128  1
  Li  Li240  1  0.40650634  0.87828761  0.56458336  1
  Li  Li241  1  0.43234365  0.97379044  0.57958583  1
  Li  Li242  1  0.43712404  0.96721252  0.60208955  1
  Li  Li243  1  0.37016415  0.85111694  0.60348330  1
  Li  Li244  1  0.49262991  0.93389438  0.62354614  1
  Li  Li245  1  0.38403446  0.86588474  0.62768385  1
  Li  Li246  1  0.36565276  0.97568518  0.46757839  1
  Li  Li247  1  0.63454734  0.13871032  0.49777611  1
  Li  Li248  1  0.61896305  0.10697054  0.54755140  1
  Li  Li249  1  0.51428337  0.07703578  0.57421907  1
  Li  Li250  1  0.71732938  0.15036839  0.58653277  1
  Li  Li251  1  0.58930287  0.11857621  0.59353405  1
  Li  Li252  1  0.51313698  0.05629282  0.61207048  1
  Li  Li253  1  0.62890074  0.13241691  0.61544397  1
  Li  Li254  1  0.56407024  0.04982723  0.63221423  1
  Li  Li255  1  0.49557409  0.16150429  0.47342934  1
  Li  Li256  1  0.50500794  0.29497606  0.50111416  1
  Li  Li257  1  0.65424467  0.25123509  0.52657452  1
  Li  Li258  1  0.64463964  0.19076354  0.56260513  1
  Li  Li259  1  0.69925747  0.26256823  0.57771008  1
  Li  Li260  1  0.64133740  0.23907088  0.60027297  1
  Li  Li261  1  0.51011024  0.18961547  0.60648802  1
  Li  Li262  1  0.68465028  0.25045919  0.62203513  1
  Li  Li263  1  0.55538917  0.22889393  0.62835769  1
  Li  Li264  1  0.40637680  0.47128391  0.44194893  1
  Li  Li265  1  0.61531314  0.46158610  0.51007277  1
  Li  Li266  1  0.59119328  0.41708112  0.54651405  1
  Li  Li267  1  0.60802761  0.36253064  0.56534845  1
  Li  Li268  1  0.67058793  0.50802345  0.57868313  1
  Li  Li269  1  0.63740534  0.36461924  0.58975112  1
  Li  Li270  1  0.57013222  0.35668531  0.60766728  1
  Li  Li271  1  0.66032940  0.45089016  0.61836858  1
  Li  Li272  1  0.54869367  0.37963830  0.62856348  1
  Li  Li273  1  0.54842448  0.47358201  0.46907768  1
  Li  Li274  1  0.75041433  0.73362519  0.48895590  1
  Li  Li275  1  0.67227196  0.67116110  0.52026762  1
  Li  Li276  1  0.57430789  0.58541760  0.55369265  1
  Li  Li277  1  0.62610116  0.67273730  0.58449701  1
  Li  Li278  1  0.63812207  0.52786987  0.59867370  1
  Li  Li279  1  0.51914016  0.54771455  0.60700226  1
  Li  Li280  1  0.61811436  0.64723692  0.61198608  1
  Li  Li281  1  0.57605078  0.54843874  0.62698647  1
  Li  Li282  1  0.64840753  0.62407657  0.44864179  1
  Li  Li283  1  0.60532861  0.83812428  0.50938611  1
  Li  Li284  1  0.56258655  0.76201740  0.54341004  1
  Li  Li285  1  0.54366422  0.75916366  0.56448914  1
  Li  Li286  1  0.61513045  0.87117867  0.58339296  1
  Li  Li287  1  0.53830802  0.77110023  0.59550490  1
  Li  Li288  1  0.51726485  0.64882020  0.59398015  1
  Li  Li289  1  0.63702092  0.77909138  0.60981154  1
  Li  Li290  1  0.59321618  0.74185559  0.62954230  1
  Li  Li291  1  0.42116518  0.91097155  0.41674939  1
  Li  Li292  1  0.56189388  0.98251862  0.46576127  1
  Li  Li293  1  0.52748466  0.94442601  0.53583127  1
  Li  Li294  1  0.55735589  0.94144414  0.55696014  1
  Li  Li295  1  0.65169262  0.03457422  0.57711507  1
  Li  Li296  1  0.56234141  0.99494133  0.59186576  1
  Li  Li297  1  0.55597354  0.88745806  0.60323299  1
  Li  Li298  1  0.61895174  0.99192853  0.61578147  1
  Li  Li299  1  0.60340002  0.86618597  0.62505779  1
  Li  Li300  1  0.60280901  0.89725510  0.43384424  1
  Li  Li301  1  0.82543872  0.14426491  0.48537938  1
  Li  Li302  1  0.69807882  0.01922080  0.52209462  1
  Li  Li303  1  0.74679781  0.02442020  0.56334543  1
  Li  Li304  1  0.85818049  0.18644825  0.58274596  1
  Li  Li305  1  0.82041817  0.07708533  0.59037017  1
  Li  Li306  1  0.69647268  0.03942249  0.60057365  1
  Li  Li307  1  0.83626490  0.15930904  0.62507530  1
  Li  Li308  1  0.75326300  0.05273831  0.63187467  1
  Li  Li309  1  0.67849887  0.14391755  0.46229563  1
  Li  Li310  1  0.69142742  0.31205903  0.48117738  1
  Li  Li311  1  0.84730466  0.16441481  0.51808550  1
  Li  Li312  1  0.80884948  0.17379866  0.55022836  1
  Li  Li313  1  0.83725799  0.29708623  0.57474660  1
  Li  Li314  1  0.77985457  0.26235333  0.59576747  1
  Li  Li315  1  0.75032037  0.15893706  0.60806714  1
  Li  Li316  1  0.82166411  0.27693930  0.61658856  1
  Li  Li317  1  0.77661883  0.24611332  0.63818841  1
  Li  Li318  1  0.56718942  0.31080298  0.45441969  1
  Li  Li319  1  0.90758751  0.44851621  0.48677099  1
  Li  Li320  1  0.78977317  0.34735395  0.50930503  1
  Li  Li321  1  0.76360672  0.34509253  0.54695958  1
  Li  Li322  1  0.86914683  0.46985424  0.58909086  1
  Li  Li323  1  0.76156941  0.38194252  0.58472635  1
  Li  Li324  1  0.71327884  0.35113981  0.60754080  1
  Li  Li325  1  0.79907778  0.47840890  0.62287677  1
  Li  Li326  1  0.75235388  0.36784916  0.63017420  1
  Li  Li327  1  0.71489114  0.52296499  0.48253459  1
  Li  Li328  1  0.82705940  0.57673717  0.50711402  1
  Li  Li329  1  0.73597436  0.52002403  0.53349517  1
  Li  Li330  1  0.75256334  0.50479324  0.56319110  1
  Li  Li331  1  0.88038551  0.61414067  0.57348243  1
  Li  Li332  1  0.80165373  0.60197234  0.58972001  1
  Li  Li333  1  0.76056777  0.48425883  0.60171498  1
  Li  Li334  1  0.83120209  0.62200440  0.61395209  1
  Li  Li335  1  0.71278993  0.57066691  0.61874645  1
  Li  Li336  1  0.47430803  0.65320881  0.42104767  1
  Li  Li337  1  0.79766346  0.83645881  0.51846315  1
  Li  Li338  1  0.76360076  0.69751507  0.54929870  1
  Li  Li339  1  0.70464162  0.67594393  0.56818873  1
  Li  Li340  1  0.82752050  0.76406390  0.58314425  1
  Li  Li341  1  0.72731187  0.79124559  0.59417012  1
  Li  Li342  1  0.73281427  0.67633199  0.60275767  1
  Li  Li343  1  0.83822649  0.76001443  0.60950044  1
  Li  Li344  1  0.73154633  0.70724214  0.62368521  1
  Li  Li345  1  0.64103529  0.80240478  0.46496365  1
  Li  Li346  1  0.71255424  0.95693035  0.48755304  1
  Li  Li347  1  0.71145548  0.87498178  0.54621144  1
  Li  Li348  1  0.69779745  0.85250198  0.56769805  1
  Li  Li349  1  0.86466790  0.92093116  0.57736678  1
  Li  Li350  1  0.77854559  0.94213945  0.59245892  1
  Li  Li351  1  0.69792199  0.90732687  0.60791220  1
  Li  Li352  1  0.82148175  0.93110870  0.62007796  1
  Li  Li353  1  0.74263922  0.83412943  0.62340265  1
  Li  Li354  1  0.76119800  0.98801180  0.45392193  1
  Li  Li355  1  1.02126683  0.12158757  0.49746932  1
  Li  Li356  1  1.02758342  0.10004005  0.53358447  1
  Li  Li357  1  0.91723740  0.08755843  0.56921040  1
  Li  Li358  1  1.01347738  0.19951116  0.59819821  1
  Li  Li359  1  0.96300029  0.07797041  0.60474374  1
  Li  Li360  1  0.83142371  0.04531736  0.61106469  1
  Li  Li361  1  0.97930452  0.16814522  0.61936769  1
  Li  Li362  1  0.91237445  0.06068492  0.62953570  1
  Li  Li363  1  0.87091238  0.15778339  0.45394807  1
  Li  Li364  1  1.01457771  0.28963731  0.50842553  1
  Li  Li365  1  0.95294586  0.27942812  0.54284994  1
  Li  Li366  1  0.97875229  0.25803732  0.57646694  1
  Li  Li367  1  1.04116507  0.33070828  0.59508400  1
  Li  Li368  1  0.90859581  0.29097498  0.59707925  1
  Li  Li369  1  0.87852214  0.17447225  0.60453585  1
  Li  Li370  1  0.99181478  0.29604778  0.61723869  1
  Li  Li371  1  0.91504230  0.25125789  0.63428246  1
  Li  Li372  1  0.80479017  0.40683403  0.45674199  1
  Li  Li373  1  1.02677342  0.56070641  0.50622354  1
  Li  Li374  1  0.92380875  0.43209491  0.52699852  1
  Li  Li375  1  0.94715302  0.37619571  0.58222659  1
  Li  Li376  1  0.99490017  0.48944020  0.58356474  1
  Li  Li377  1  0.96482048  0.41247798  0.60543813  1
  Li  Li378  1  0.83794829  0.38675246  0.60545873  1
  Li  Li379  1  0.99325166  0.48245753  0.62345243  1
  Li  Li380  1  0.89530182  0.38006344  0.62654506  1
  Li  Li381  1  0.73312832  0.49877018  0.42691517  1
  Li  Li382  1  0.95081990  0.71175664  0.49043094  1
  Li  Li383  1  0.91726097  0.56115335  0.54566084  1
  Li  Li384  1  0.90769524  0.41993152  0.56314567  1
  Li  Li385  1  1.07173942  0.61445972  0.57283498  1
  Li  Li386  1  0.93807464  0.62951020  0.59706256  1
  Li  Li387  1  0.89585068  0.51556413  0.60976077  1
  Li  Li388  1  0.97595496  0.62003876  0.61802161  1
  Li  Li389  1  0.89792811  0.56679455  0.63284046  1
  Li  Li390  1  0.84593395  0.62340297  0.46314236  1
  Li  Li391  1  0.99477422  0.85123224  0.52358918  1
  Li  Li392  1  0.91638231  0.69714637  0.52698745  1
  Li  Li393  1  0.93319411  0.70165109  0.56203554  1
  Li  Li394  1  1.03205995  0.85461233  0.57962131  1
  Li  Li395  1  0.99369188  0.75016256  0.58819985  1
  Li  Li396  1  0.97762449  0.74180625  0.60979648  1
  Li  Li397  1  0.92217213  0.83457426  0.62376739  1
  Li  Li398  1  0.88315338  0.70523575  0.62763222  1
  Li  Li399  1  0.87005720  0.85852702  0.46983576  1
  Li  Li400  1  0.90349619  0.96850600  0.50116980  1
  Li  Li401  1  0.87407589  0.99782362  0.53798896  1
  Li  Li402  1  0.88200770  0.86510031  0.55856317  1
  Li  Li403  1  1.00738147  1.01139457  0.56501741  1
  Li  Li404  1  0.92078838  0.97473691  0.59451705  1
  Li  Li405  1  0.90691047  0.85692465  0.60210687  1
  Li  Li406  1  0.94604446  0.96335347  0.61646609  1
  Li  Li407  1  0.89511086  0.93308642  0.63823234  1
  Li  Li408  1  0.00426444  0.01420778  0.64337073  1
  Li  Li409  1  0.08620551  0.13806031  0.67238198  1
  Li  Li410  1  0.06723497  -0.00371034  0.67217186  1
  Li  Li411  1  0.01971820  -0.04079739  0.69458326  1
  Li  Li412  1  0.12088070  0.09530169  0.71397051  1
  Li  Li413  1  0.02119638  0.04593763  0.72911007  1
  Li  Li414  1  -0.06207372  -0.05990703  0.73808547  1
  Li  Li415  1  0.03877922  0.05821783  0.76595257  1
  Li  Li416  1  0.03311614  -0.01220509  0.79851027  1
  Li  Li417  1  0.00042710  0.15099806  0.64075661  1
  Li  Li418  1  0.16086739  0.24671147  0.66262317  1
  Li  Li419  1  0.08599632  0.24289461  0.68371823  1
  Li  Li420  1  0.04736806  0.14009885  0.69437332  1
  Li  Li421  1  0.14396080  0.21692628  0.70277088  1
  Li  Li422  1  0.04018750  0.18748285  0.71839833  1
  Li  Li423  1  -0.02676024  0.14346971  0.74047253  1
  Li  Li424  1  0.05898780  0.22633328  0.76455745  1
  Li  Li425  1  -0.06840637  0.15308518  0.79009816  1
  Li  Li426  1  -0.01274692  0.34814256  0.64409427  1
  Li  Li427  1  0.08464927  0.41984648  0.65881851  1
  Li  Li428  1  0.07143183  0.36214723  0.67746053  1
  Li  Li429  1  -0.01278799  0.31714846  0.69053751  1
  Li  Li430  1  0.10563290  0.43220600  0.70538272  1
  Li  Li431  1  0.06421808  0.32058656  0.71204783  1
  Li  Li432  1  -0.02279579  0.27189603  0.72952068  1
  Li  Li433  1  0.06143910  0.39750488  0.76144786  1
  Li  Li434  1  0.04580585  0.32096183  0.79275181  1
  Li  Li435  1  -0.01166896  0.48546648  0.64527216  1
  Li  Li436  1  0.10215182  0.60128529  0.65958498  1
  Li  Li437  1  0.06753547  0.54333964  0.67696248  1
  Li  Li438  1  -0.02126662  0.49419986  0.68869747  1
  Li  Li439  1  0.08462154  0.60062925  0.70678832  1
  Li  Li440  1  0.04466575  0.57226115  0.72621216  1
  Li  Li441  1  -0.02156769  0.49301165  0.73768148  1
  Li  Li442  1  0.05215803  0.57252404  0.76244799  1
  Li  Li443  1  -0.06963643  0.46529822  0.78573945  1
  Li  Li444  1  -0.04119749  0.69338234  0.64987758  1
  Li  Li445  1  0.08988057  0.78845105  0.66014106  1
  Li  Li446  1  0.03651233  0.72734452  0.67641617  1
  Li  Li447  1  -0.04221135  0.66369791  0.68843355  1
  Li  Li448  1  0.05543073  0.79068692  0.70643837  1
  Li  Li449  1  0.03751401  0.73651984  0.72472476  1
  Li  Li450  1  -0.07773931  0.67405423  0.74547686  1
  Li  Li451  1  -0.00407722  0.73084414  0.76022430  1
  Li  Li452  1  0.02846455  0.64317323  0.79117121  1
  Li  Li453  1  -0.02577507  0.83105146  0.64512035  1
  Li  Li454  1  0.07596090  0.90870283  0.65481155  1
  Li  Li455  1  0.00811835  0.88871985  0.67676244  1
  Li  Li456  1  -0.07683814  0.83363811  0.69017197  1
  Li  Li457  1  0.09247431  0.97261116  0.71202977  1
  Li  Li458  1  0.05081946  0.90995142  0.72884928  1
  Li  Li459  1  -0.04174420  0.82567077  0.73021416  1
  Li  Li460  1  -0.02358301  0.89917090  0.76944792  1
  Li  Li461  1  -0.05851196  0.80336655  0.79673144  1
  Li  Li462  1  0.14611647  0.00895843  0.65040886  1
  Li  Li463  1  0.26316450  0.12003092  0.66574580  1
  Li  Li464  1  0.18712357  0.03691170  0.67410442  1
  Li  Li465  1  0.13238337  0.01633941  0.69332076  1
  Li  Li466  1  0.24435588  0.12470070  0.70925447  1
  Li  Li467  1  0.21679611  0.07561786  0.72877078  1
  Li  Li468  1  0.12773286  0.01882009  0.74023796  1
  Li  Li469  1  0.20738372  0.12077093  0.76183049  1
  Li  Li470  1  0.22135127  -0.01481028  0.78225589  1
  Li  Li471  1  0.11580758  0.15275738  0.65075042  1
  Li  Li472  1  0.29111177  0.29845572  0.66644456  1
  Li  Li473  1  0.22895273  0.25165267  0.68379974  1
  Li  Li474  1  0.18408388  0.13792912  0.68677734  1
  Li  Li475  1  0.26416017  0.26167306  0.70702370  1
  Li  Li476  1  0.18206367  0.20883205  0.72338872  1
  Li  Li477  1  0.10046495  0.14710079  0.73672937  1
  Li  Li478  1  0.19499423  0.22500042  0.74482042  1
  Li  Li479  1  0.13944613  0.14685149  0.79456819  1
  Li  Li480  1  0.19372896  0.34793439  0.65025409  1
  Li  Li481  1  0.29833507  0.42970762  0.65948040  1
  Li  Li482  1  0.19526426  0.37207800  0.67265705  1
  Li  Li483  1  0.16916576  0.33801657  0.69578798  1
  Li  Li484  1  0.30319648  0.38436286  0.71081834  1
  Li  Li485  1  0.18282178  0.34823176  0.71934121  1
  Li  Li486  1  0.09873031  0.28233602  0.73524018  1
  Li  Li487  1  0.21909745  0.36202208  0.74338119  1
  Li  Li488  1  0.22613204  0.29948883  0.77500181  1
  Li  Li489  1  0.17848259  0.48417551  0.64833976  1
  Li  Li490  1  0.29544304  0.57896863  0.65939872  1
  Li  Li491  1  0.23999753  0.51826960  0.67512881  1
  Li  Li492  1  0.19191209  0.47974157  0.69298423  1
  Li  Li493  1  0.31081392  0.56854689  0.70922915  1
  Li  Li494  1  0.22017850  0.52637385  0.72185282  1
  Li  Li495  1  0.07140912  0.42034902  0.72996393  1
  Li  Li496  1  0.21481102  0.50820219  0.75503602  1
  Li  Li497  1  0.16389030  0.48084670  0.78994614  1
  Li  Li498  1  0.15628410  0.65563569  0.64352181  1
  Li  Li499  1  0.27670215  0.75252950  0.66017978  1
  Li  Li500  1  0.21033101  0.70282487  0.67578062  1
  Li  Li501  1  0.16442418  0.65461509  0.69354938  1
  Li  Li502  1  0.28186147  0.76479542  0.70608905  1
  Li  Li503  1  0.22108455  0.70483811  0.72204995  1
  Li  Li504  1  0.17419925  0.67055871  0.74161386  1
  Li  Li505  1  0.27915628  0.81988995  0.76480514  1
  Li  Li506  1  0.21691375  0.66515082  0.77668874  1
  Li  Li507  1  0.15148413  0.83310445  0.64287949  1
  Li  Li508  1  0.26602944  0.91450174  0.66319864  1
  Li  Li509  1  0.17284118  0.89693593  0.67666008  1
  Li  Li510  1  0.13954088  0.83494359  0.69340206  1
  Li  Li511  1  0.25089166  0.94396889  0.70869979  1
  Li  Li512  1  0.19622524  0.88372216  0.72427683  1
  Li  Li513  1  0.10981642  0.82200236  0.74975273  1
  Li  Li514  1  0.14422158  0.93348056  0.75503480  1
  Li  Li515  1  0.12114616  0.82084007  0.78505795  1
  Li  Li516  1  0.32525092  -0.01208052  0.65016914  1
  Li  Li517  1  0.43063043  0.10448247  0.66377926  1
  Li  Li518  1  0.39382731  0.02287755  0.67795864  1
  Li  Li519  1  0.30322090  -0.00510004  0.69147780  1
  Li  Li520  1  0.45393906  0.09120350  0.70486939  1
  Li  Li521  1  0.37946366  0.04304698  0.71948891  1
  Li  Li522  1  0.31473621  -0.01566993  0.74744118  1
  Li  Li523  1  0.37241208  0.06120941  0.76450991  1
  Li  Li524  1  0.26338265  0.02132809  0.81712428  1
  Li  Li525  1  0.32538284  0.18755634  0.65144586  1
  Li  Li526  1  0.42766443  0.27611582  0.66119905  1
  Li  Li527  1  0.37275995  0.24576652  0.68046801  1
  Li  Li528  1  0.32341015  0.16170044  0.69362064  1
  Li  Li529  1  0.39145232  0.28006864  0.70232602  1
  Li  Li530  1  0.38505634  0.22444283  0.72182572  1
  Li  Li531  1  0.30399574  0.15824833  0.73334273  1
  Li  Li532  1  0.34093175  0.23466145  0.74916433  1
  Li  Li533  1  0.34212359  0.16794589  0.79435424  1
  Li  Li534  1  0.33171432  0.32337245  0.64652855  1
  Li  Li535  1  0.44015610  0.40830859  0.65498494  1
  Li  Li536  1  0.39072975  0.38320791  0.67512294  1
  Li  Li537  1  0.29492295  0.35401912  0.68920973  1
  Li  Li538  1  0.47259924  0.38122055  0.70463476  1
  Li  Li539  1  0.41527339  0.34468739  0.72336583  1
  Li  Li540  1  0.28220795  0.29125769  0.72872048  1
  Li  Li541  1  0.36989275  0.39815519  0.76277146  1
  Li  Li542  1  0.33914897  0.36679351  0.79960917  1
  Li  Li543  1  0.37362871  0.50603845  0.64682411  1
  Li  Li544  1  0.45884222  0.59677987  0.65911934  1
  Li  Li545  1  0.39929523  0.50593290  0.67119296  1
  Li  Li546  1  0.36962909  0.45526188  0.69358673  1
  Li  Li547  1  0.45030829  0.55978743  0.70182926  1
  Li  Li548  1  0.41354826  0.47120448  0.71649360  1
  Li  Li549  1  0.32142035  0.41028497  0.73240932  1
  Li  Li550  1  0.37202209  0.54265954  0.73751700  1
  Li  Li551  1  0.35464907  0.54015855  0.78186936  1
  Li  Li552  1  0.36794169  0.62905750  0.64215468  1
  Li  Li553  1  0.43816539  0.72692830  0.65361814  1
  Li  Li554  1  0.41129017  0.67702182  0.67628161  1
  Li  Li555  1  0.34050867  0.62602653  0.69125409  1
  Li  Li556  1  0.47494210  0.74245779  0.70029647  1
  Li  Li557  1  0.42908646  0.69714066  0.71797855  1
  Li  Li558  1  0.34712285  0.64340468  0.74860578  1
  Li  Li559  1  0.43648776  0.71656852  0.77217179  1
  Li  Li560  1  0.38054309  0.66528145  0.80652327  1
  Li  Li561  1  0.35267409  0.81264150  0.64658187  1
  Li  Li562  1  0.46304750  0.90506947  0.65898254  1
  Li  Li563  1  0.41834021  0.84938948  0.67558643  1
  Li  Li564  1  0.32290867  0.81891785  0.68855562  1
  Li  Li565  1  0.44613905  0.91536300  0.70267301  1
  Li  Li566  1  0.39969642  0.86983126  0.72067675  1
  Li  Li567  1  0.34081452  0.81398206  0.73695524  1
  Li  Li568  1  0.45581820  0.89492356  0.76974683  1
  Li  Li569  1  0.31102868  0.83735297  0.79830848  1
  Li  Li570  1  0.52942267  -0.01086559  0.64936234  1
  Li  Li571  1  0.63691938  0.09410070  0.66150652  1
  Li  Li572  1  0.57461846  0.03245528  0.67625633  1
  Li  Li573  1  0.54043519  -0.03854947  0.69206519  1
  Li  Li574  1  0.63578595  0.11168387  0.70972169  1
  Li  Li575  1  0.57825232  0.02147694  0.71953312  1
  Li  Li576  1  0.49576978  -0.04132970  0.74196427  1
  Li  Li577  1  0.56102638  0.06793356  0.76693167  1
  Li  Li578  1  0.43756522  0.00061426  0.79667620  1
  Li  Li579  1  0.48862542  0.16765458  0.64856305  1
  Li  Li580  1  0.62605677  0.29111344  0.66113700  1
  Li  Li581  1  0.55245849  0.22196347  0.67365355  1
  Li  Li582  1  0.49740498  0.16235061  0.68968553  1
  Li  Li583  1  0.59576440  0.27695859  0.70482825  1
  Li  Li584  1  0.50777252  0.23872534  0.71747596  1
  Li  Li585  1  0.46796870  0.12979859  0.74024909  1
  Li  Li586  1  0.59023701  0.15295939  0.73978674  1
  Li  Li587  1  0.46766058  0.22936607  0.77309960  1
  Li  Li588  1  0.52587381  0.30519983  0.64726921  1
  Li  Li589  1  0.58653995  0.41448011  0.65100998  1
  Li  Li590  1  0.52979982  0.36297448  0.66904374  1
  Li  Li591  1  0.47395704  0.31458315  0.68665712  1
  Li  Li592  1  0.54892159  0.48256304  0.70594017  1
  Li  Li593  1  0.53801824  0.40955079  0.72307412  1
  Li  Li594  1  0.50093463  0.30420267  0.74536692  1
  Li  Li595  1  0.57259982  0.39285495  0.75379629  1
  Li  Li596  1  0.51146403  0.40236102  0.78575530  1
  Li  Li597  1  0.50265905  0.50183937  0.64328481  1
  Li  Li598  1  0.59631967  0.59284609  0.65421382  1
  Li  Li599  1  0.53656271  0.48904414  0.66646171  1
  Li  Li600  1  0.49621252  0.45358899  0.68636833  1
  Li  Li601  1  0.56619431  0.61740411  0.70305916  1
  Li  Li602  1  0.52160177  0.55119579  0.72341633  1
  Li  Li603  1  0.45614339  0.45469087  0.73710084  1
  Li  Li604  1  0.51120274  0.54686626  0.76166847  1
  Li  Li605  1  0.55102083  0.60786033  0.78882619  1
  Li  Li606  1  0.50621611  0.63968772  0.63924200  1
  Li  Li607  1  0.58239750  0.73269689  0.65126264  1
  Li  Li608  1  0.53525236  0.69114374  0.67001262  1
  Li  Li609  1  0.51755476  0.58455408  0.68113485  1
  Li  Li610  1  0.63275158  0.73652134  0.70802369  1
  Li  Li611  1  0.57568109  0.66644182  0.72340707  1
  Li  Li612  1  0.49619314  0.63249497  0.73908486  1
  Li  Li613  1  0.59103888  0.69665271  0.74803607  1
  Li  Li614  1  0.52211163  0.80206272  0.79992831  1
  Li  Li615  1  0.49072574  0.81905901  0.63790198  1
  Li  Li616  1  0.69032397  0.92549963  0.66292625  1
  Li  Li617  1  0.60260301  0.86204532  0.67295875  1
  Li  Li618  1  0.56829096  0.78382483  0.68798205  1
  Li  Li619  1  0.66610286  0.87319087  0.70318979  1
  Li  Li620  1  0.57122475  0.85691356  0.71709694  1
  Li  Li621  1  0.50638877  0.78334286  0.74358591  1
  Li  Li622  1  0.61938326  0.79815535  0.76946369  1
  Li  Li623  1  0.44327985  0.88807144  0.82682279  1
  Li  Li624  1  0.70903832  -0.03497704  0.64345528  1
  Li  Li625  1  0.79065519  0.10042241  0.66266412  1
  Li  Li626  1  0.77549205  0.03336723  0.68007345  1
  Li  Li627  1  0.70535963  -0.02494561  0.69387162  1
  Li  Li628  1  0.81131555  0.10453502  0.70793745  1
  Li  Li629  1  0.70085414  0.00449414  0.72178666  1
  Li  Li630  1  0.61627075  -0.06998182  0.74664602  1
  Li  Li631  1  0.74269426  0.11552478  0.77648082  1
  Li  Li632  1  0.62227383  -0.04438123  0.78930607  1
  Li  Li633  1  0.66412713  0.16554635  0.64551471  1
  Li  Li634  1  0.77633720  0.26598604  0.66002885  1
  Li  Li635  1  0.72599237  0.23140038  0.67815694  1
  Li  Li636  1  0.67696978  0.14898502  0.69095690  1
  Li  Li637  1  0.76550092  0.27780118  0.70667927  1
  Li  Li638  1  0.71454891  0.24181858  0.72445508  1
  Li  Li639  1  0.69466343  0.09201423  0.74417271  1
  Li  Li640  1  0.74582593  0.24954113  0.74460463  1
  Li  Li641  1  0.57598224  0.15261920  0.79843379  1
  Li  Li642  1  0.65185945  0.31082898  0.64029459  1
  Li  Li643  1  0.72971233  0.43747076  0.65659898  1
  Li  Li644  1  0.69957499  0.40807481  0.67631444  1
  Li  Li645  1  0.62390826  0.35705942  0.68999944  1
  Li  Li646  1  0.75470933  0.45511542  0.70571604  1
  Li  Li647  1  0.66082474  0.41056449  0.71650198  1
  Li  Li648  1  0.61164121  0.33598982  0.73585278  1
  Li  Li649  1  0.75437872  0.40890117  0.75284169  1
  Li  Li650  1  0.64697787  0.25417004  0.76741100  1
  Li  Li651  1  0.68813076  0.48918453  0.63845498  1
  Li  Li652  1  0.72125111  0.62113878  0.65766279  1
  Li  Li653  1  0.65708693  0.55831451  0.67208061  1
  Li  Li654  1  0.63389180  0.52969011  0.69213009  1
  Li  Li655  1  0.73513765  0.65541316  0.70435863  1
  Li  Li656  1  0.65559110  0.56083109  0.71563198  1
  Li  Li657  1  0.62943416  0.47513810  0.73422019  1
  Li  Li658  1  0.74300143  0.54341675  0.73284033  1
  Li  Li659  1  0.68911376  0.47139178  0.77855631  1
  Li  Li660  1  0.65039960  0.63825937  0.63611577  1
  Li  Li661  1  0.72550605  0.77441512  0.65173416  1
  Li  Li662  1  0.67010540  0.74268743  0.67052348  1
  Li  Li663  1  0.63639636  0.66421572  0.68664587  1
  Li  Li664  1  0.74717360  0.78308728  0.71511060  1
  Li  Li665  1  0.71725947  0.67618433  0.72536786  1
  Li  Li666  1  0.63456384  0.59317189  0.73927353  1
  Li  Li667  1  0.69797593  0.63487665  0.76753274  1
  Li  Li668  1  0.64678958  0.65852031  0.81189321  1
  Li  Li669  1  0.60482599  0.84872527  0.64634808  1
  Li  Li670  1  0.81948125  0.91746891  0.65828990  1
  Li  Li671  1  0.75496324  0.85683534  0.67679078  1
  Li  Li672  1  0.71359420  0.77551245  0.69194230  1
  Li  Li673  1  0.80948878  0.96638243  0.71320553  1
  Li  Li674  1  0.71595443  0.88511851  0.72598132  1
  Li  Li675  1  0.63196627  0.78100419  0.72929720  1
  Li  Li676  1  0.71168151  0.94040386  0.76091325  1
  Li  Li677  1  0.65221257  0.82065071  0.82814131  1
  Li  Li678  1  0.87178818  0.02856199  0.65225913  1
  Li  Li679  1  0.99647212  0.07886915  0.66144335  1
  Li  Li680  1  0.93511968  0.03082511  0.67857454  1
  Li  Li681  1  0.89447639  -0.01786828  0.69745171  1
  Li  Li682  1  0.98352523  0.07045580  0.70873753  1
  Li  Li683  1  0.89583472  0.05306698  0.72537327  1
  Li  Li684  1  0.79558168  -0.03096018  0.73498403  1
  Li  Li685  1  0.86906261  0.01716461  0.75580967  1
  Li  Li686  1  0.83190115  -0.02913514  0.78960143  1
  Li  Li687  1  0.85896088  0.14735980  0.64670476  1
  Li  Li688  1  0.97684960  0.25944612  0.65876103  1
  Li  Li689  1  0.91614666  0.20192140  0.67392668  1
  Li  Li690  1  0.86889423  0.16440459  0.69209625  1
  Li  Li691  1  0.95406067  0.26089726  0.70832334  1
  Li  Li692  1  0.89858232  0.17097173  0.71886206  1
  Li  Li693  1  0.79774113  0.11279418  0.73335854  1
  Li  Li694  1  0.89356530  0.18763513  0.75607427  1
  Li  Li695  1  0.77385418  0.17720293  0.81027618  1
  Li  Li696  1  0.84717792  0.34025068  0.64794857  1
  Li  Li697  1  0.96152666  0.43054965  0.66357603  1
  Li  Li698  1  0.86955168  0.37800109  0.67398336  1
  Li  Li699  1  0.83488791  0.33725380  0.69273881  1
  Li  Li700  1  0.94489748  0.45507542  0.70744060  1
  Li  Li701  1  0.89298593  0.37652498  0.72097389  1
  Li  Li702  1  0.85640979  0.28199407  0.73251837  1
  Li  Li703  1  0.94349779  0.35803917  0.75537444  1
  Li  Li704  1  0.82221132  0.30843348  0.77917601  1
  Li  Li705  1  0.82962623  0.45985088  0.64382271  1
  Li  Li706  1  0.92828726  0.59688107  0.66068848  1
  Li  Li707  1  0.83940504  0.54329854  0.67151036  1
  Li  Li708  1  0.80105539  0.52542323  0.69105739  1
  Li  Li709  1  0.91381532  0.62762014  0.70735265  1
  Li  Li710  1  0.84963930  0.56724386  0.72205727  1
  Li  Li711  1  0.79673927  0.40598879  0.73306789  1
  Li  Li712  1  0.85947829  0.53699364  0.76003327  1
  Li  Li713  1  0.84367818  0.64305866  0.78631848  1
  Li  Li714  1  0.79535821  0.62796297  0.64092925  1
  Li  Li715  1  0.92269581  0.82390843  0.66510196  1
  Li  Li716  1  0.84652130  0.73131337  0.66960782  1
  Li  Li717  1  0.78153984  0.67884556  0.68475249  1
  Li  Li718  1  0.87974215  0.77094481  0.70668285  1
  Li  Li719  1  0.84847354  0.73919531  0.72673716  1
  Li  Li720  1  0.80007472  0.66613160  0.74228417  1
  Li  Li721  1  0.81741691  0.78516444  0.76700335  1
  Li  Li722  1  0.83107649  0.68798325  0.82014061  1
  Li  Li723  1  0.83362407  0.80784714  0.64243085  1
  Li  Li724  1  0.95441666  0.94400602  0.65955715  1
  Li  Li725  1  0.86724846  0.92309914  0.67884737  1
  Li  Li726  1  0.81137136  0.86777885  0.69944034  1
  Li  Li727  1  0.95325148  0.94191318  0.71585350  1
  Li  Li728  1  0.84387927  0.86529529  0.72381040  1
  Li  Li729  1  0.73943048  0.79346747  0.74040886  1
  Li  Li730  1  0.85506162  0.83523511  0.74784996  1
  Li  Li731  1  0.73214959  0.80154127  0.79568108  1
  Li  Li732  1  -0.00517330  -0.08305506  0.85021358  1
  Li  Li733  1  0.05006507  0.06257080  0.90895724  1
  Li  Li734  1  0.00818047  -0.04493417  0.94246719  1
  Li  Li735  1  -0.08922507  0.06074945  0.82333768  1
  Li  Li736  1  0.07332765  0.25251225  0.89498056  1
  Li  Li737  1  0.02240491  0.19698933  0.93771213  1
  Li  Li738  1  0.01478363  0.22948526  0.82129869  1
  Li  Li739  1  0.07359696  0.25171020  0.85623824  1
  Li  Li740  1  -0.02478439  0.39829244  0.91542754  1
  Li  Li741  1  -0.06817834  0.40540187  0.84573218  1
  Li  Li742  1  0.10104003  0.58441093  0.84525276  1
  Li  Li743  1  0.08086200  0.51593740  0.94408487  1
  Li  Li744  1  -0.03992591  0.54021736  0.81814322  1
  Li  Li745  1  0.17146782  0.75633102  0.89959653  1
  Li  Li746  1  0.04887272  0.60598300  0.91211673  1
  Li  Li747  1  -0.14640733  0.88636145  0.82191710  1
  Li  Li748  1  0.07976628  0.91578403  0.88333677  1
  Li  Li749  1  -0.01391872  0.82355359  0.91205694  1
  Li  Li750  1  0.11584147  -0.12287541  0.81958634  1
  Li  Li751  1  0.16957956  0.09024705  0.87554145  1
  Li  Li752  1  0.22593871  0.09673913  0.94438568  1
  Li  Li753  1  0.09521772  0.08054899  0.83635359  1
  Li  Li754  1  0.28045702  0.28101611  0.87881622  1
  Li  Li755  1  0.25194671  0.16890179  0.91027812  1
  Li  Li756  1  0.22246616  0.25524985  0.81952885  1
  Li  Li757  1  0.16955503  0.41781575  0.85877531  1
  Li  Li758  1  0.18923098  0.32791702  0.93181208  1
  Li  Li759  1  0.10885629  0.41540671  0.82326459  1
  Li  Li760  1  0.17516902  0.58976549  0.87948172  1
  Li  Li761  1  0.17508627  0.42642207  0.89970440  1
  Li  Li762  1  0.16712206  0.65617552  0.81237045  1
  Li  Li763  1  0.16535753  0.76486699  0.86053479  1
  Li  Li764  1  0.16332487  0.74971748  0.93870107  1
  Li  Li765  1  0.00651536  0.73999636  0.83178814  1
  Li  Li766  1  0.28482754  0.91335657  0.88559143  1
  Li  Li767  1  0.19950509  0.93908366  0.91884141  1
  Li  Li768  1  0.21842610  -0.05542065  0.85050344  1
  Li  Li769  1  0.37341518  0.09980114  0.88410037  1
  Li  Li770  1  0.41033656  0.02702492  0.91838128  1
  Li  Li771  1  0.28244811  0.16671194  0.84794392  1
  Li  Li772  1  0.47015084  0.24736027  0.86077358  1
  Li  Li773  1  0.42612690  0.22918306  0.93685107  1
  Li  Li774  1  0.34068066  0.36808475  0.84186128  1
  Li  Li775  1  0.36408996  0.47066907  0.87815454  1
  Li  Li776  1  0.37651498  0.36389119  0.90978946  1
  Li  Li777  1  0.29448881  0.50966255  0.82014974  1
  Li  Li778  1  0.53686598  0.60024539  0.87216097  1
  Li  Li779  1  0.25981715  0.58281655  0.91793452  1
  Li  Li780  1  0.32201415  0.59650186  0.85051419  1
  Li  Li781  1  0.35953880  0.68570627  0.88590637  1
  Li  Li782  1  0.36095509  0.79937155  0.91514537  1
  Li  Li783  1  0.27556562  0.77272279  0.83152966  1
  Li  Li784  1  0.48758367  0.92005252  0.88894384  1
  Li  Li785  1  0.35208466  0.90443333  0.94916933  1
  Li  Li786  1  0.40300899  0.00481748  0.85577664  1
  Li  Li787  1  0.57877191  0.08862693  0.87239898  1
  Li  Li788  1  0.56513813  0.05148695  0.94790063  1
  Li  Li789  1  0.45064496  0.10786338  0.82748495  1
  Li  Li790  1  0.67970318  0.28559152  0.86832278  1
  Li  Li791  1  0.51635642  0.20765672  0.90001789  1
  Li  Li792  1  0.49528969  0.29635817  0.82075480  1
  Li  Li793  1  0.53196520  0.44122795  0.85157103  1
  Li  Li794  1  0.36059589  0.45798878  0.94383884  1
  Li  Li795  1  0.51756911  0.49577087  0.81696327  1
  Li  Li796  1  0.66912909  0.56417783  0.90375462  1
  Li  Li797  1  0.46363284  0.56567333  0.91132787  1
  Li  Li798  1  0.48860633  0.68048457  0.83499108  1
  Li  Li799  1  0.74308736  0.69478979  0.87715440  1
  Li  Li800  1  0.41658359  0.68025088  0.94323785  1
  Li  Li801  1  0.38726222  0.80420414  0.86011692  1
  Li  Li802  1  0.68916487  0.91545503  0.88184142  1
  Li  Li803  1  0.56094335  0.74205193  0.89948564  1
  Li  Li804  1  0.59225014  -0.03159812  0.84709070  1
  Li  Li805  1  0.75595101  0.12804851  0.88686239  1
  Li  Li806  1  0.63984361  0.02113154  0.91233412  1
  Li  Li807  1  0.64233000  0.17507394  0.83800845  1
  Li  Li808  1  0.76020814  0.37495562  0.90470032  1
  Li  Li809  1  0.66073993  0.21845441  0.92471400  1
  Li  Li810  1  0.66711405  0.32640406  0.80030820  1
  Li  Li811  1  0.75290547  0.47971131  0.87128017  1
  Li  Li812  1  0.55754624  0.40143528  0.88995146  1
  Li  Li813  1  0.71070459  0.38141285  0.83500702  1
  Li  Li814  1  0.86558452  0.60880803  0.90052712  1
  Li  Li815  1  0.59072819  0.42277999  0.93129851  1
  Li  Li816  1  0.68144468  0.59971035  0.84323605  1
  Li  Li817  1  0.76238955  0.79009769  0.91062444  1
  Li  Li818  1  0.65098790  0.66430344  0.93609667  1
  Li  Li819  1  0.58324744  0.78777700  0.86118535  1
  Li  Li820  1  0.78768916  1.01557090  0.85249052  1
  Li  Li821  1  0.55137755  0.85737406  0.92944579  1
  Li  Li822  1  0.68100436  0.00762116  0.81781285  1
  Li  Li823  1  0.95423482  0.09278742  0.87353476  1
  Li  Li824  1  0.85213360  -0.00748090  0.91182747  1
  Li  Li825  1  0.85186052  0.21190611  0.84577841  1
  Li  Li826  1  0.87840386  0.20217673  0.91135564  1
  Li  Li827  1  0.80886636  0.09736299  0.94346692  1
  Li  Li828  1  0.87385033  0.34759622  0.81280688  1
  Li  Li829  1  0.89036741  0.30388839  0.87830305  1
  Li  Li830  1  0.82747171  0.32562105  0.94341814  1
  Li  Li831  1  0.75899797  0.50714269  0.80804069  1
  Li  Li832  1  0.98875106  0.48383610  0.87927880  1
  Li  Li833  1  0.82725535  0.52539273  0.93271697  1
  Li  Li834  1  0.88579421  0.60077416  0.85165128  1
  Li  Li835  1  0.98461441  0.71342751  0.87598987  1
  Li  Li836  1  0.91596578  0.71462713  0.93987207  1
  Li  Li837  1  0.80663500  0.80087355  0.85131544  1
  Li  Li838  1  0.88052251  0.88825803  0.88141675  1
  Li  Li839  1  0.75979555  0.88673372  0.94325963  1
  La  La840  1  -0.00411677  0.15602810  0.18366903  1
  La  La841  1  0.45539899  0.40616434  0.18328415  1
  La  La842  1  0.25304069  0.00605686  0.20175461  1
  La  La843  1  0.75416070  0.52411788  0.20350778  1
  La  La844  1  0.87852644  0.76369425  0.22285466  1
  La  La845  1  0.37193972  0.75476681  0.21605929  1
  La  La846  1  0.61971289  0.26516250  0.22279727  1
  La  La847  1  0.14048616  0.26031325  0.22007937  1
  La  La848  1  0.74902569  1.01193092  0.24137217  1
  La  La849  1  0.26101230  0.50289661  0.24456099  1
  La  La850  1  0.50431604  0.12842963  0.26237452  1
  La  La851  1  0.00691621  0.39096117  0.26094908  1
  La  La852  1  0.49888709  0.65028456  0.26278004  1
  La  La853  1  0.00178556  0.89151745  0.26294629  1
  La  La854  1  0.75641585  0.51422655  0.28240458  1
  La  La855  1  0.25592846  1.00820586  0.28405626  1
  La  La856  1  0.38171156  0.25819944  0.30489833  1
  La  La857  1  0.88187976  0.26508279  0.30410492  1
  La  La858  1  0.13093265  0.76438173  0.30438312  1
  La  La859  1  0.63240308  0.76600434  0.30399406  1
  La  La860  1  0.25499827  0.51429514  0.32564761  1
  La  La861  1  0.75333281  0.01605646  0.32777250  1
  La  La862  1  0.00283542  0.63753398  0.34553600  1
  La  La863  1  0.50499108  0.87683731  0.34603604  1
  La  La864  1  0.00187350  0.14192305  0.34629866  1
  La  La865  1  0.50959858  0.39408860  0.34643436  1
  La  La866  1  0.25824626  1.02288521  0.36642495  1
  La  La867  1  0.75327487  0.52516704  0.36755548  1
  La  La868  1  0.88620635  0.76700166  0.38764048  1
  La  La869  1  0.37814455  0.75887001  0.38858766  1
  La  La870  1  0.62030825  0.25759347  0.38885008  1
  La  La871  1  0.12534878  0.25545846  0.38827167  1
  La  La872  1  0.76169096  0.01072694  0.40894630  1
  La  La873  1  0.24685012  0.51887761  0.40891471  1
  La  La874  1  0.50005067  0.12839249  0.42885441  1
  La  La875  1  -0.00024656  0.37077403  0.42628583  1
  Zr  Zr876  1  0.79832222  0.76402200  0.17846354  1
  Zr  Zr877  1  0.72875028  0.26711349  0.17893576  1
  Zr  Zr878  1  0.99024270  1.01415656  0.22157737  1
  Zr  Zr879  1  0.50634274  1.00923047  0.21905956  1
  Zr  Zr880  1  0.50131532  0.51363645  0.22250558  1
  Zr  Zr881  1  0.03739282  0.51683265  0.21779535  1
  Zr  Zr882  1  0.75465404  0.25906157  0.26335375  1
  Zr  Zr883  1  0.75247607  0.76408614  0.26359223  1
  Zr  Zr884  1  0.25190627  0.25574939  0.26408060  1
  Zr  Zr885  1  0.25448275  0.76689234  0.26251627  1
  Zr  Zr886  1  0.51067755  0.51227291  0.30520559  1
  Zr  Zr887  1  0.00613760  0.50821555  0.30488156  1
  Zr  Zr888  1  0.00704852  1.01454762  0.30634415  1
  Zr  Zr889  1  0.50364215  0.01253000  0.30617289  1
  Zr  Zr890  1  0.25926135  0.75161177  0.34742625  1
  Zr  Zr891  1  0.26053643  0.26900639  0.34772789  1
  Zr  Zr892  1  0.75408176  0.76558278  0.34663716  1
  Zr  Zr893  1  0.75747394  0.26827917  0.34878583  1
  Zr  Zr894  1  0.00974950  0.00657462  0.38778880  1
  Zr  Zr895  1  0.50501694  1.00343227  0.38863893  1
  Zr  Zr896  1  0.51439972  0.52019837  0.39267421  1
  Zr  Zr897  1  -0.00687274  0.51695630  0.38874951  1
  Zr  Zr898  1  0.74199185  0.25806577  0.43058126  1
  Zr  Zr899  1  0.80983266  0.77471670  0.43372079  1
  O  O900  1  0.75557935  0.89614521  0.18032045  1
  O  O901  1  0.81145697  0.14907405  0.18038525  1
  O  O902  1  0.13709308  0.57504131  0.19721650  1
  O  O903  1  0.30166256  0.45535675  0.18331813  1
  O  O904  1  0.93808900  0.77719785  0.18861872  1
  O  O905  1  0.58583353  0.23801205  0.18565738  1
  O  O906  1  0.38043762  0.69332436  0.19053875  1
  O  O907  1  0.06266020  0.30017657  0.19185439  1
  O  O908  1  0.44702743  0.04573637  0.19514308  1
  O  O909  1  0.03239191  0.99491223  0.19350444  1
  O  O910  1  0.55787002  0.52781711  0.19578792  1
  O  O911  1  0.92902202  0.51163759  0.19738685  1
  O  O912  1  0.20432888  0.84121114  0.20600106  1
  O  O913  1  0.28442030  0.18828076  0.20768672  1
  O  O914  1  0.72951884  0.70317349  0.19861881  1
  O  O915  1  0.77777479  0.33427703  0.19998688  1
  O  O916  1  0.54660780  0.86506243  0.21473652  1
  O  O917  1  0.94364271  0.15576246  0.21203106  1
  O  O918  1  0.01900481  0.66674256  0.22072808  1
  O  O919  1  0.47121348  0.36499469  0.21206585  1
  O  O920  1  0.84034754  0.95843299  0.21396429  1
  O  O921  1  0.65245096  0.07076406  0.21139989  1
  O  O922  1  0.16920491  0.42980266  0.22061231  1
  O  O923  1  0.35637881  0.56761745  0.22058513  1
  O  O924  1  0.35381607  0.97753426  0.22547848  1
  O  O925  1  0.13776946  0.06766512  0.22430290  1
  O  O926  1  0.65441327  0.45127309  0.22850620  1
  O  O927  1  0.82116792  0.58507714  0.22863889  1
  O  O928  1  0.48156348  0.16163292  0.23098285  1
  O  O929  1  0.01692378  0.87363271  0.23183490  1
  O  O930  1  0.95638521  0.38328678  0.22756069  1
  O  O931  1  0.55228858  0.65226892  0.23076301  1
  O  O932  1  0.77093199  0.20859440  0.23749361  1
  O  O933  1  0.72032344  0.81347140  0.23823382  1
  O  O934  1  0.30331479  0.30804501  0.24077359  1
  O  O935  1  0.21609589  0.72194491  0.23764839  1
  O  O936  1  0.93078876  0.03792414  0.24678706  1
  O  O937  1  0.56428965  0.98399208  0.24693268  1
  O  O938  1  0.06481738  0.53888893  0.24729411  1
  O  O939  1  0.45644860  0.47876611  0.24865168  1
  O  O940  1  0.10159839  0.22500991  0.25456933  1
  O  O941  1  0.40446908  0.80408181  0.25365022  1
  O  O942  1  0.59921585  0.29161902  0.25517689  1
  O  O943  1  0.90344353  0.73414935  0.25515435  1
  O  O944  1  0.30536104  0.10814819  0.25795216  1
  O  O945  1  0.19921919  0.91494709  0.25693525  1
  O  O946  1  0.81445883  0.40273959  0.25967232  1
  O  O947  1  0.68263767  0.62023282  0.26177258  1
  O  O948  1  0.19604170  0.40065383  0.26816120  1
  O  O949  1  0.31286352  0.62426382  0.26765157  1
  O  O950  1  0.70247192  0.10893327  0.26885988  1
  O  O951  1  0.80664009  0.91255671  0.26947335  1
  O  O952  1  0.40880482  0.28811902  0.27460688  1
  O  O953  1  0.09958853  0.73403111  0.27311560  1
  O  O954  1  0.90451895  0.21989068  0.27344273  1
  O  O955  1  0.60645041  0.80685275  0.27410878  1
  O  O956  1  0.95453900  0.53941330  0.27947905  1
  O  O957  1  0.55842885  0.47658304  0.28045908  1
  O  O958  1  0.06178608  0.03312592  0.28136972  1
  O  O959  1  0.44548224  0.99461629  0.28126092  1
  O  O960  1  0.71957972  0.31274454  0.28881456  1
  O  O961  1  0.79189231  0.70473138  0.28864154  1
  O  O962  1  0.22275923  0.19909021  0.29006124  1
  O  O963  1  0.27126996  0.82896997  0.28893629  1
  O  O964  1  0.03906926  0.36258167  0.29706148  1
  O  O965  1  0.47625472  0.66175806  0.29868746  1
  O  O966  1  0.54070396  0.16192332  0.29999685  1
  O  O967  1  0.97051355  0.86531734  0.30044538  1
  O  O968  1  0.35675042  0.46071316  0.29967788  1
  O  O969  1  0.15785149  0.56240678  0.29909972  1
  O  O970  1  0.65565233  0.96442050  0.30132459  1
  O  O971  1  0.85308975  0.06467077  0.30146878  1
  O  O972  1  0.85612655  0.45410590  0.31160855  1
  O  O973  1  0.66431168  0.56080077  0.31013614  1
  O  O974  1  0.15471022  0.96359240  0.31425436  1
  O  O975  1  0.35475482  0.06433897  0.31404261  1
  O  O976  1  0.96723100  0.65435673  0.31491594  1
  O  O977  1  0.54106154  0.36942405  0.31623370  1
  O  O978  1  0.47126300  0.86627892  0.31586984  1
  O  O979  1  0.03291137  0.16294444  0.31622143  1
  O  O980  1  0.28964793  0.70322656  0.32207621  1
  O  O981  1  0.22173861  0.32778765  0.32382683  1
  O  O982  1  0.78818577  0.82185540  0.32197166  1
  O  O983  1  0.72128308  0.21881913  0.32414009  1
  O  O984  1  0.45481320  0.54323283  0.33215091  1
  O  O985  1  0.06308362  0.48998062  0.33092221  1
  O  O986  1  0.56102669  0.04520773  0.33275504  1
  O  O987  1  0.94911580  0.98530596  0.33309992  1
  O  O988  1  0.60289246  0.72250290  0.33818600  1
  O  O989  1  0.91058028  0.30257929  0.34154704  1
  O  O990  1  0.10798402  0.78642681  0.33992493  1
  O  O991  1  0.41071892  0.23504752  0.33943850  1
  O  O992  1  0.80052941  0.61583445  0.34198520  1
  O  O993  1  0.70374399  0.41541320  0.34389152  1
  O  O994  1  0.30795455  0.90206528  0.34584190  1
  O  O995  1  0.19495164  0.12736006  0.34458659  1
  O  O996  1  0.69127306  0.90717241  0.35119657  1
  O  O997  1  0.80976177  0.12257133  0.35214215  1
  O  O998  1  0.21142571  0.59998339  0.35245555  1
  O  O999  1  0.31905861  0.40906700  0.35668788  1
  O  O1000  1  0.90649423  0.79337895  0.35564485  1
  O  O1001  1  0.60143326  0.23158909  0.35811963  1
  O  O1002  1  0.41108198  0.72884799  0.35816696  1
  O  O1003  1  0.11088334  0.31101530  0.35865524  1
  O  O1004  1  0.45308746  0.04161249  0.36412233  1
  O  O1005  1  0.06951797  0.97949176  0.36290614  1
  O  O1006  1  0.56471107  0.54127228  0.36741497  1
  O  O1007  1  0.93552865  0.49367374  0.36364374  1
  O  O1008  1  0.22041668  0.77393359  0.37458213  1
  O  O1009  1  0.29928836  0.20812940  0.37319320  1
  O  O1010  1  0.73586273  0.71342468  0.37319541  1
  O  O1011  1  0.76951391  0.33060687  0.37647166  1
  O  O1012  1  0.55051029  0.85840172  0.38216896  1
  O  O1013  1  0.96405314  0.15225580  0.38186201  1
  O  O1014  1  0.02796942  0.66156483  0.38102986  1
  O  O1015  1  0.48285386  0.36875175  0.38688661  1
  O  O1016  1  0.85316081  0.95482122  0.38270156  1
  O  O1017  1  0.66006260  0.05653407  0.38406454  1
  O  O1018  1  0.14884349  0.48836717  0.38480314  1
  O  O1019  1  0.36429357  0.57841993  0.38800476  1
  O  O1020  1  0.35760841  0.94597280  0.39488813  1
  O  O1021  1  0.15600595  0.07013194  0.39427179  1
  O  O1022  1  0.65259796  0.47426934  0.40448446  1
  O  O1023  1  0.84398580  0.56392072  0.39597925  1
  O  O1024  1  0.47717950  0.14811490  0.39840702  1
  O  O1025  1  0.04578803  0.86194201  0.39297298  1
  O  O1026  1  0.97656384  0.36049977  0.39514857  1
  O  O1027  1  0.55970775  0.66461485  0.40001887  1
  O  O1028  1  0.79856541  0.19221830  0.40856165  1
  O  O1029  1  0.74031080  0.83424089  0.41213883  1
  O  O1030  1  0.26842221  0.32145310  0.40406916  1
  O  O1031  1  0.19949785  0.68213749  0.41231686  1
  O  O1032  1  0.95747538  0.01493301  0.41450949  1
  O  O1033  1  0.55620131  0.97476549  0.41564897  1
  O  O1034  1  0.02522712  0.52855986  0.41667779  1
  O  O1035  1  0.43750030  0.48814790  0.41820997  1
  O  O1036  1  0.07822039  0.21223810  0.42281097  1
  O  O1037  1  0.40543440  0.78003369  0.42119249  1
  O  O1038  1  0.59218558  0.28028473  0.42251956  1
  O  O1039  1  0.94546813  0.74518759  0.42159163  1
  O  O1040  1  0.32879950  0.14246186  0.43030619  1
  O  O1041  1  0.17398003  0.92863460  0.42589743  1
  O  O1042  1  0.81761593  0.38946789  0.42721444  1
  O  O1043  1  0.75607942  0.63109870  0.43015583  1
