# generated using pymatgen
data_Li46La3Zr2O12
_symmetry_space_group_name_H-M   'P 1'
_cell_length_a   12.03460713
_cell_length_b   12.01911671
_cell_length_c   92.09961753
_cell_angle_alpha   89.92620873
_cell_angle_beta   90.08577186
_cell_angle_gamma   108.34079388
_symmetry_Int_Tables_number   1
_chemical_formula_structural   Li46La3Zr2O12
_chemical_formula_sum   'Li552 La36 Zr24 O144'
_cell_volume   12645.03822006
_cell_formula_units_Z   12
loop_
 _symmetry_equiv_pos_site_id
 _symmetry_equiv_pos_as_xyz
  1  'x, y, z'
loop_
 _atom_site_type_symbol
 _atom_site_label
 _atom_site_symmetry_multiplicity
 _atom_site_fract_x
 _atom_site_fract_y
 _atom_site_fract_z
 _atom_site_occupancy
  Li  Li0  1  0.32311402  0.61533637  0.16209951  1
  Li  Li1  1  0.31394764  0.09736796  0.16395150  1
  Li  Li2  1  0.03491966  0.07042613  0.16757400  1
  Li  Li3  1  0.05884265  0.59858035  0.16913649  1
  Li  Li4  1  0.18311747  0.83415327  0.17142472  1
  Li  Li5  1  0.85135211  0.02915389  0.18219911  1
  Li  Li6  1  0.48172030  0.59038002  0.17767418  1
  Li  Li7  1  0.23478553  0.01588727  0.18616808  1
  Li  Li8  1  0.96308100  0.56734190  0.19173585  1
  Li  Li9  1  0.65427958  0.72280593  0.19547416  1
  Li  Li10  1  0.67350606  0.98207159  0.19695913  1
  Li  Li11  1  0.78628620  0.58044394  0.20635725  1
  Li  Li12  1  0.43826570  0.02886345  0.20488509  1
  Li  Li13  1  0.51220838  0.47673460  0.20353202  1
  Li  Li14  1  0.85921423  0.16864020  0.21112548  1
  Li  Li15  1  0.36558631  0.20481849  0.20640010  1
  Li  Li16  1  0.93312506  0.44242855  0.21137611  1
  Li  Li17  1  0.30602867  0.38393699  0.21930444  1
  Li  Li18  1  0.05838012  0.32108837  0.22266776  1
  Li  Li19  1  0.92964077  0.62594252  0.22552964  1
  Li  Li20  1  0.34661855  0.96033252  0.23190601  1
  Li  Li21  1  0.89761571  0.11591171  0.23754899  1
  Li  Li22  1  0.36068278  0.53056596  0.24259446  1
  Li  Li23  1  0.14175715  0.82013234  0.24217002  1
  Li  Li24  1  0.94370045  0.76913996  0.24427848  1
  Li  Li25  1  0.33596689  0.76610796  0.24810120  1
  Li  Li26  1  0.47380038  0.97681617  0.25616074  1
  Li  Li27  1  0.91574879  0.96299979  0.25378278  1
  Li  Li28  1  0.73996867  0.08352597  0.25844597  1
  Li  Li29  1  0.77704083  0.59055669  0.25653859  1
  Li  Li30  1  0.51987252  0.49022674  0.25797446  1
  Li  Li31  1  0.57208602  0.14610308  0.27048421  1
  Li  Li32  1  0.66065731  0.39070728  0.26953939  1
  Li  Li33  1  0.32882973  0.57512888  0.27133714  1
  Li  Li34  1  0.93902680  0.12230716  0.27093492  1
  Li  Li35  1  0.82357166  0.57222957  0.28253482  1
  Li  Li36  1  0.42183374  0.10236877  0.28996952  1
  Li  Li37  1  0.10173279  0.28123345  0.28870807  1
  Li  Li38  1  0.18173427  0.50638984  0.29099999  1
  Li  Li39  1  0.21490700  0.14254879  0.29605572  1
  Li  Li40  1  0.98302258  0.55346145  0.30109175  1
  Li  Li41  1  0.98989317  0.06194488  0.29862217  1
  Li  Li42  1  0.35250623  0.68738483  0.30367010  1
  Li  Li43  1  0.85007099  0.70215056  0.30517397  1
  Li  Li44  1  0.44610881  0.93998142  0.30659057  1
  Li  Li45  1  0.80396451  0.88923092  0.31622345  1
  Li  Li46  1  0.55612635  0.79762687  0.31649723  1
  Li  Li47  1  0.39447260  0.13247261  0.31699379  1
  Li  Li48  1  0.82727079  0.52416602  0.31988089  1
  Li  Li49  1  0.37516466  0.64876597  0.32960934  1
  Li  Li50  1  0.84354539  0.03989898  0.33543316  1
  Li  Li51  1  0.66777437  0.36710036  0.33657997  1
  Li  Li52  1  0.42789632  0.28174870  0.33876911  1
  Li  Li53  1  0.80201397  0.24616442  0.34441751  1
  Li  Li54  1  0.88731423  0.48043648  0.34807682  1
  Li  Li55  1  0.38663111  0.48603496  0.34772104  1
  Li  Li56  1  0.25078550  0.62627039  0.35241054  1
  Li  Li57  1  0.25137616  0.12047920  0.35216502  1
  Li  Li58  1  0.00333536  0.02962738  0.35256473  1
  Li  Li59  1  0.06777208  0.67697754  0.36272415  1
  Li  Li60  1  0.14648169  0.91701901  0.36357306  1
  Li  Li61  1  0.80357014  0.06889745  0.36309295  1
  Li  Li62  1  0.42660312  0.64547409  0.36676771  1
  Li  Li63  1  0.28343577  0.09563751  0.37967983  1
  Li  Li64  1  0.90738538  0.60660164  0.37730252  1
  Li  Li65  1  0.60044972  0.83352518  0.38116069  1
  Li  Li66  1  0.66956732  0.05099609  0.38705383  1
  Li  Li67  1  0.71855820  0.67327563  0.39311718  1
  Li  Li68  1  0.47050416  0.10391335  0.39439139  1
  Li  Li69  1  0.49071598  0.61514636  0.39365370  1
  Li  Li70  1  0.80670227  0.23423537  0.40166713  1
  Li  Li71  1  0.27669907  0.23807897  0.40008051  1
  Li  Li72  1  0.88206636  0.48665440  0.39822808  1
  Li  Li73  1  0.29789927  0.42873622  0.40811047  1
  Li  Li74  1  0.03044951  0.32745576  0.40827421  1
  Li  Li75  1  0.89435713  0.66170407  0.40950196  1
  Li  Li76  1  0.31147592  0.03660752  0.41069784  1
  Li  Li77  1  0.88269900  0.17049118  0.42681734  1
  Li  Li78  1  0.34679917  0.58168465  0.42646673  1
  Li  Li79  1  0.14443669  0.90246051  0.42960288  1
  Li  Li80  1  0.91739297  0.77411231  0.43160209  1
  Li  Li81  1  0.29921032  0.79542623  0.43447982  1
  Li  Li82  1  0.38854161  0.02173143  0.43846413  1
  Li  Li83  1  0.91926821  0.00137060  0.43904451  1
  Li  Li84  1  0.08174470  -0.03650414  0.48664673  1
  Li  Li85  1  0.33556797  0.20432959  0.52416398  1
  Li  Li86  1  0.32133214  0.12804525  0.55263895  1
  Li  Li87  1  0.31263396  0.08226918  0.63162506  1
  Li  Li88  1  0.39343612  0.02921077  0.65821217  1
  Li  Li89  1  0.31300543  0.11819124  0.70252551  1
  Li  Li90  1  0.36083182  0.02083657  0.72562945  1
  Li  Li91  1  0.15934794  0.05607397  0.77823871  1
  Li  Li92  1  0.38376491  -0.11453847  0.81375012  1
  Li  Li93  1  0.30598397  0.10040649  0.49238557  1
  Li  Li94  1  0.13732005  0.17007123  0.47700985  1
  Li  Li95  1  0.31884020  0.31916192  0.54655944  1
  Li  Li96  1  0.38415264  0.22247628  0.57574040  1
  Li  Li97  1  0.37109241  0.27459931  0.62233200  1
  Li  Li98  1  0.39257526  0.16901641  0.67450299  1
  Li  Li99  1  0.26514954  0.26546142  0.71769771  1
  Li  Li100  1  0.36867088  0.20531884  0.73964156  1
  Li  Li101  1  0.21862939  0.36715367  0.77609591  1
  Li  Li102  1  0.28492233  0.20486022  0.79583228  1
  Li  Li103  1  0.31404979  0.31479727  0.49126277  1
  Li  Li104  1  0.29117284  0.35331229  0.46210138  1
  Li  Li105  1  0.40757302  0.53645248  0.54707619  1
  Li  Li106  1  0.34462869  0.34829292  0.59430695  1
  Li  Li107  1  0.42491503  0.42288009  0.64015639  1
  Li  Li108  1  0.47140797  0.36387871  0.66688576  1
  Li  Li109  1  0.45813891  0.40285217  0.72562988  1
  Li  Li110  1  0.55204335  0.32876434  0.74947472  1
  Li  Li111  1  0.37720613  0.42654629  0.79620317  1
  Li  Li112  1  0.57660182  0.46191516  0.86598151  1
  Li  Li113  1  0.47812420  0.46799014  0.50232323  1
  Li  Li114  1  0.34505025  0.61283754  0.45161023  1
  Li  Li115  1  0.44665940  0.62300358  0.52051024  1
  Li  Li116  1  0.41338660  0.57927012  0.59814668  1
  Li  Li117  1  0.44880172  0.62095160  0.62802863  1
  Li  Li118  1  0.44010855  0.52544321  0.68576328  1
  Li  Li119  1  0.41235210  0.68883790  0.70030473  1
  Li  Li120  1  0.52224849  0.45255413  0.77235157  1
  Li  Li121  1  0.38264950  0.57830183  0.77253461  1
  Li  Li122  1  0.47327623  0.54240201  0.82657481  1
  Li  Li123  1  0.50515692  0.69712634  0.49513288  1
  Li  Li124  1  0.48926233  0.80346097  0.47202019  1
  Li  Li125  1  0.40410089  0.73103737  0.54608221  1
  Li  Li126  1  0.42651052  0.67194784  0.57377691  1
  Li  Li127  1  0.52938565  0.79359791  0.60603823  1
  Li  Li128  1  0.63706337  0.68236321  0.69445067  1
  Li  Li129  1  0.60742162  0.79117668  0.71711263  1
  Li  Li130  1  0.52543718  0.55149580  0.74594607  1
  Li  Li131  1  0.52304198  0.77421692  0.76427896  1
  Li  Li132  1  0.54493761  0.76824950  0.81900801  1
  Li  Li133  1  0.55909148  0.91417240  0.49833124  1
  Li  Li134  1  0.71867165  1.04067245  0.48245927  1
  Li  Li135  1  0.37024423  0.93026059  0.54632224  1
  Li  Li136  1  0.56049892  0.87048083  0.56614453  1
  Li  Li137  1  0.50858932  1.05499291  0.63730430  1
  Li  Li138  1  0.56757615  0.75699007  0.64753867  1
  Li  Li139  1  0.53229229  1.03091577  0.67699808  1
  Li  Li140  1  0.66198687  0.92009468  0.73856097  1
  Li  Li141  1  0.54599604  0.96709262  0.78078727  1
  Li  Li142  1  0.65048357  0.81328542  0.79089827  1
  Li  Li143  1  0.61933565  0.99534568  0.54390837  1
  Li  Li144  1  0.24515593  1.00657975  0.46797685  1
  Li  Li145  1  0.48855036  0.11939097  0.53527743  1
  Li  Li146  1  0.50032905  0.12404705  0.59092448  1
  Li  Li147  1  0.33482722  0.13735241  0.60377155  1
  Li  Li148  1  0.59389710  0.21056488  0.66215304  1
  Li  Li149  1  0.48359625  0.05408983  0.70174519  1
  Li  Li150  1  0.66311918  0.02179425  0.71386978  1
  Li  Li151  1  0.36161942  0.23838858  0.76986192  1
  Li  Li152  1  0.60562714  -0.02308217  0.80859147  1
  Li  Li153  1  0.38713192  0.01869998  0.51203159  1
  Li  Li154  1  0.16868071  0.11358679  0.44802745  1
  Li  Li155  1  0.50616190  0.27894528  0.55056595  1
  Li  Li156  1  0.61045479  0.31298126  0.57634181  1
  Li  Li157  1  0.52420581  0.31241591  0.60059160  1
  Li  Li158  1  0.47526546  0.23286550  0.64269617  1
  Li  Li159  1  0.49373228  0.23931224  0.71487470  1
  Li  Li160  1  0.56870485  0.12636289  0.73427811  1
  Li  Li161  1  0.52575086  0.30399479  0.79093785  1
  Li  Li162  1  0.45803313  0.10798700  0.80376312  1
  Li  Li163  1  0.49666369  0.25749474  0.50608009  1
  Li  Li164  1  0.40515160  0.20541596  0.46903364  1
  Li  Li165  1  0.45957801  0.41943674  0.56542778  1
  Li  Li166  1  0.55933542  0.48918680  0.58750945  1
  Li  Li167  1  0.49673615  0.46413578  0.61619824  1
  Li  Li168  1  0.62729006  0.41394977  0.64885647  1
  Li  Li169  1  0.58562464  0.44794289  0.69883548  1
  Li  Li170  1  0.77191168  0.42510047  0.69778552  1
  Li  Li171  1  0.63384167  0.43460081  0.81165867  1
  Li  Li172  1  0.41729166  0.30247314  0.81832181  1
  Li  Li173  1  0.55053311  0.38544117  0.47905731  1
  Li  Li174  1  0.41442910  0.53207073  0.47693422  1
  Li  Li175  1  0.61593387  0.60658367  0.53615340  1
  Li  Li176  1  0.59139179  0.62379703  0.56317137  1
  Li  Li177  1  0.62354226  0.59569847  0.63935032  1
  Li  Li178  1  0.60471680  0.55246030  0.66872654  1
  Li  Li179  1  0.50274404  0.59071376  0.71594918  1
  Li  Li180  1  0.70096773  0.57763047  0.72099577  1
  Li  Li181  1  0.55127789  0.60339632  0.79743483  1
  Li  Li182  1  0.72656751  0.67356042  0.81882878  1
  Li  Li183  1  0.50854527  0.41053136  0.52870690  1
  Li  Li184  1  0.65020895  0.62969624  0.47882274  1
  Li  Li185  1  0.62989841  0.78998056  0.54610640  1
  Li  Li186  1  0.62067917  0.70301280  0.58811253  1
  Li  Li187  1  0.66225786  0.78061569  0.62421734  1
  Li  Li188  1  0.72860922  0.73248264  0.66133744  1
  Li  Li189  1  0.74198908  0.90023178  0.69886351  1
  Li  Li190  1  0.80218830  0.78467127  0.71690916  1
  Li  Li191  1  0.73540339  0.87253671  0.76544648  1
  Li  Li192  1  0.82838469  0.75155175  0.79126324  1
  Li  Li193  1  0.61465885  0.80695140  0.52010107  1
  Li  Li194  1  0.74752379  0.82363044  0.49730787  1
  Li  Li195  1  0.65611037  1.10131056  0.57727417  1
  Li  Li196  1  0.68426996  0.91037119  0.58868638  1
  Li  Li197  1  0.64565845  0.96842239  0.63148993  1
  Li  Li198  1  0.76493098  0.89178045  0.64600694  1
  Li  Li199  1  0.66252524  0.88288235  0.67257664  1
  Li  Li200  1  0.69283173  0.72283863  0.74205805  1
  Li  Li201  1  0.66637207  1.05385931  0.75847350  1
  Li  Li202  1  0.93913816  0.94235428  0.77784153  1
  Li  Li203  1  0.92805495  -0.00851351  0.46849831  1
  Li  Li204  1  0.52616986  0.05178617  0.46029668  1
  Li  Li205  1  0.47189303  0.05676221  0.56495121  1
  Li  Li206  1  0.61515017  0.01831451  0.60590101  1
  Li  Li207  1  0.54948625  0.17173830  0.61651715  1
  Li  Li208  1  0.69282124  0.07133552  0.65681143  1
  Li  Li209  1  0.70664899  0.22435878  0.70703685  1
  Li  Li210  1  0.86431519  0.13674553  0.70457677  1
  Li  Li211  1  0.52805192  0.15455306  0.76761433  1
  Li  Li212  1  0.78745229  0.03224987  0.78767026  1
  Li  Li213  1  0.60916199  0.07588447  0.51642168  1
  Li  Li214  1  0.54348209  0.12849836  0.48859967  1
  Li  Li215  1  0.67775342  0.21914874  0.55456379  1
  Li  Li216  1  0.70874760  0.24327158  0.59842735  1
  Li  Li217  1  0.62003424  0.35945024  0.62444832  1
  Li  Li218  1  0.69350023  0.21907931  0.63881421  1
  Li  Li219  1  0.56655926  0.24418360  0.68849202  1
  Li  Li220  1  0.68366375  0.37117592  0.72562340  1
  Li  Li221  1  0.71069804  0.36937959  0.77175380  1
  Li  Li222  1  0.66473968  0.18184964  0.79318414  1
  Li  Li223  1  0.65755524  0.29820834  0.52733471  1
  Li  Li224  1  0.62137272  0.29793066  0.45091787  1
  Li  Li225  1  0.66289010  0.46066624  0.55522217  1
  Li  Li226  1  0.81985242  0.38911918  0.57913261  1
  Li  Li227  1  0.72482816  0.44382479  0.60134371  1
  Li  Li228  1  0.82564152  0.39968329  0.64713778  1
  Li  Li229  1  0.68726185  0.40046914  0.67244237  1
  Li  Li230  1  0.89827943  0.50318760  0.72024495  1
  Li  Li231  1  0.74483535  0.52417248  0.74916902  1
  Li  Li232  1  0.81660865  0.38204183  0.79870538  1
  Li  Li233  1  0.70335419  0.41086603  0.50014624  1
  Li  Li234  1  0.54898115  0.51480506  0.45201315  1
  Li  Li235  1  0.75463220  0.51774429  0.52755584  1
  Li  Li236  1  0.76373419  0.57963180  0.57878835  1
  Li  Li237  1  0.66436577  0.61153357  0.61069544  1
  Li  Li238  1  0.77900810  0.53381197  0.62924145  1
  Li  Li239  1  0.77675320  0.59005213  0.68221272  1
  Li  Li240  1  1.00148643  0.55516863  0.69366591  1
  Li  Li241  1  0.66460023  0.65029314  0.76986347  1
  Li  Li242  1  0.73320629  0.53907038  0.78951512  1
  Li  Li243  1  0.86455933  0.60908926  0.49926400  1
  Li  Li244  1  0.66168729  0.61505589  0.50778494  1
  Li  Li245  1  0.76612598  0.79611900  0.56869000  1
  Li  Li246  1  0.80639693  0.78681971  0.60291572  1
  Li  Li247  1  0.83563596  0.73717138  0.63243454  1
  Li  Li248  1  0.98748079  0.69808091  0.64603955  1
  Li  Li249  1  0.83685072  0.80891800  0.68269801  1
  Li  Li250  1  0.87522750  0.65655035  0.70409253  1
  Li  Li251  1  0.86161126  0.89445169  0.74248654  1
  Li  Li252  1  0.88537550  0.74751132  0.76214993  1
  Li  Li253  1  0.80474560  0.75908487  0.52474782  1
  Li  Li254  1  0.79105517  0.68341366  0.45280998  1
  Li  Li255  1  0.78120058  1.00994527  0.56496157  1
  Li  Li256  1  0.89346622  0.94793879  0.58773820  1
  Li  Li257  1  0.79309571  0.96052976  0.61375178  1
  Li  Li258  1  0.93993760  0.85584282  0.65726641  1
  Li  Li259  1  0.93110699  1.00846071  0.68985379  1
  Li  Li260  1  0.99008946  0.84881041  0.70028549  1
  Li  Li261  1  0.88027263  1.06352631  0.75927303  1
  Li  Li262  1  1.02601621  0.86507827  0.79946528  1
  Li  Li263  1  0.82891665  0.92045261  0.54250404  1
  Li  Li264  1  0.76675186  0.21710903  0.50226769  1
  Li  Li265  1  0.86366387  0.23281413  0.56755662  1
  Li  Li266  1  0.81481493  0.10243837  0.59230112  1
  Li  Li267  1  0.77806770  0.15555451  0.61832546  1
  Li  Li268  1  0.84740783  0.00905728  0.66668769  1
  Li  Li269  1  0.72610555  0.06562866  0.68595374  1
  Li  Li270  1  0.89495024  -0.01488556  0.71781952  1
  Li  Li271  1  0.74255749  0.26471723  0.74739286  1
  Li  Li272  1  1.02250801  0.08326437  0.80209525  1
  Li  Li273  1  0.79328136  0.17040372  0.53513553  1
  Li  Li274  1  0.76362002  0.10484213  0.45365131  1
  Li  Li275  1  0.98291756  0.32742552  0.54424920  1
  Li  Li276  1  0.93886605  0.28446806  0.59878336  1
  Li  Li277  1  0.84279440  0.36998150  0.61918102  1
  Li  Li278  1  0.88970474  0.23939865  0.65585718  1
  Li  Li279  1  0.77567159  0.25449710  0.67742012  1
  Li  Li280  1  0.89084970  0.30570530  0.72508047  1
  Li  Li281  1  0.92225370  0.44863573  0.74806798  1
  Li  Li282  1  0.81518260  0.22141878  0.77241467  1
  Li  Li283  1  0.87261806  0.39747611  0.52130792  1
  Li  Li284  1  0.72186233  0.27048230  0.47603160  1
  Li  Li285  1  0.84620643  0.42956983  0.55082348  1
  Li  Li286  1  1.04776279  0.40666566  0.57131612  1
  Li  Li287  1  0.96760146  0.48684131  0.59613493  1
  Li  Li288  1  1.04065462  0.43252289  0.64630751  1
  Li  Li289  1  0.90561459  0.46192556  0.67090319  1
  Li  Li290  1  1.08057582  0.42640047  0.71221217  1
  Li  Li291  1  0.90655200  0.55742385  0.77131362  1
  Li  Li292  1  1.05657485  0.47650104  0.80210402  1
  Li  Li293  1  0.94357898  0.42258484  0.49391954  1
  Li  Li294  1  0.78323904  0.50480908  0.47285686  1
  Li  Li295  1  0.84409079  0.66595480  0.55106234  1
  Li  Li296  1  -0.01915707  0.57834046  0.57181687  1
  Li  Li297  1  0.87726159  0.62204262  0.60527347  1
  Li  Li298  1  -0.01766902  0.55668680  0.62782359  1
  Li  Li299  1  0.80953158  0.58428736  0.65598550  1
  Li  Li300  1  0.08521399  0.70751988  0.71663493  1
  Li  Li301  1  0.90841651  0.68420910  0.73568067  1
  Li  Li302  1  -0.13005777  0.52012702  0.82037504  1
  Li  Li303  1  -0.02863139  0.64549354  0.52499587  1
  Li  Li304  1  0.01729863  0.61077513  0.47575192  1
  Li  Li305  1  1.01358911  0.84696561  0.53803856  1
  Li  Li306  1  -0.05916971  0.75001518  0.58302351  1
  Li  Li307  1  0.00416971  0.80665524  0.61459886  1
  Li  Li308  1  0.16429340  0.70199063  0.63550710  1
  Li  Li309  1  -0.02908191  0.70995387  0.67500181  1
  Li  Li310  1  0.15406377  0.75591034  0.68761676  1
  Li  Li311  1  0.02757096  0.87846138  0.72749567  1
  Li  Li312  1  -0.02378900  0.63901919  0.79543531  1
  Li  Li313  1  -0.10776970  0.76666509  0.47952922  1
  Li  Li314  1  0.05434128  0.83790779  0.46015456  1
  Li  Li315  1  0.97226154  0.92832935  0.56421434  1
  Li  Li316  1  0.08571756  0.93523016  0.59114574  1
  Li  Li317  1  -0.05019261  0.94908250  0.62973747  1
  Li  Li318  1  0.10797495  0.89775729  0.63846986  1
  Li  Li319  1  0.07184526  0.93501528  0.67763298  1
  Li  Li320  1  0.18807022  0.90917934  0.70950257  1
  Li  Li321  1  0.00414364  1.09431188  0.73789219  1
  Li  Li322  1  0.17657903  0.84737976  0.82499179  1
  Li  Li323  1  -0.03109023  0.83131660  0.50693336  1
  Li  Li324  1  0.71489724  0.85114965  0.47104927  1
  Li  Li325  1  0.94400189  0.12282961  0.54943278  1
  Li  Li326  1  -0.00977015  0.08570003  0.60770964  1
  Li  Li327  1  0.86831267  0.08660174  0.63880537  1
  Li  Li328  1  0.02483002  0.06269950  0.65648907  1
  Li  Li329  1  0.96938224  0.19307541  0.67865795  1
  Li  Li330  1  0.10686979  0.06864527  0.70326019  1
  Li  Li331  1  0.80122605  0.10993921  0.73348789  1
  Li  Li332  1  0.02710335  -0.04210129  0.82444688  1
  Li  Li333  1  0.77995727  -0.00387834  0.51753358  1
  Li  Li334  1  0.92297872  0.21126778  0.48125548  1
  Li  Li335  1  0.12928621  0.23464149  0.53271842  1
  Li  Li336  1  -0.00410884  0.14109197  0.57785019  1
  Li  Li337  1  -0.00846766  0.25864899  0.62793415  1
  Li  Li338  1  0.10211229  0.27057294  0.65730490  1
  Li  Li339  1  -0.07349830  0.33284924  0.69575358  1
  Li  Li340  1  0.04263498  0.20928968  0.71619561  1
  Li  Li341  1  -0.02770192  0.26483172  0.75057678  1
  Li  Li342  1  -0.07976526  0.23629112  0.80014912  1
  Li  Li343  1  0.94983070  0.21324967  0.51623159  1
  Li  Li344  1  0.91869049  0.38889653  0.46468684  1
  Li  Li345  1  0.07919349  0.43529329  0.52004192  1
  Li  Li346  1  0.14042049  0.33884478  0.59193001  1
  Li  Li347  1  0.09587603  0.44667647  0.61642454  1
  Li  Li348  1  0.27773994  0.39563854  0.66906312  1
  Li  Li349  1  0.08947141  0.42567123  0.67662803  1
  Li  Li350  1  0.15010532  0.34537324  0.73471475  1
  Li  Li351  1  0.11291808  0.55869458  0.73263877  1
  Li  Li352  1  0.14209495  0.31429128  0.80110393  1
  Li  Li353  1  0.10248556  0.31160823  0.49789404  1
  Li  Li354  1  0.10378898  0.61179748  0.44983768  1
  Li  Li355  1  0.04776709  0.56212438  0.54455192  1
  Li  Li356  1  0.19624061  0.55641135  0.59076232  1
  Li  Li357  1  0.09783956  0.65723345  0.60691444  1
  Li  Li358  1  0.25192283  0.52849084  0.64414843  1
  Li  Li359  1  0.09856383  0.60864947  0.66190671  1
  Li  Li360  1  0.20279016  0.60661972  0.70232254  1
  Li  Li361  1  0.07355776  0.67678881  0.75358409  1
  Li  Li362  1  0.16590665  0.60390479  0.77863288  1
  Li  Li363  1  0.09920431  0.63212545  0.50392188  1
  Li  Li364  1  0.28221602  0.81867605  0.46172693  1
  Li  Li365  1  0.07383092  0.76186644  0.55928343  1
  Li  Li366  1  0.14762420  0.75290090  0.58441451  1
  Li  Li367  1  0.22278438  0.84868914  0.61296856  1
  Li  Li368  1  0.34315806  0.72876424  0.65196931  1
  Li  Li369  1  0.18085920  0.82426114  0.66164483  1
  Li  Li370  1  0.30871097  0.72256153  0.72313417  1
  Li  Li371  1  0.22120052  0.84302712  0.73922354  1
  Li  Li372  1  0.30766842  0.81192810  0.76904588  1
  Li  Li373  1  0.20301656  0.77764961  0.53607311  1
  Li  Li374  1  0.15889986  0.80210244  0.48521324  1
  Li  Li375  1  0.19636787  0.95700469  0.56449323  1
  Li  Li376  1  0.30002533  0.97280919  0.58816375  1
  Li  Li377  1  0.15809537  1.01291450  0.61471584  1
  Li  Li378  1  0.30544007  0.89485133  0.63964171  1
  Li  Li379  1  0.28133780  0.98200895  0.68286245  1
  Li  Li380  1  0.33882039  0.84932643  0.70090489  1
  Li  Li381  1  0.06785811  0.94021432  0.75391422  1
  Li  Li382  1  0.10108577  0.81559457  0.77545584  1
  Li  Li383  1  0.17991400  0.88374500  0.51051357  1
  Li  Li384  1  0.01307269  0.22871617  0.45536727  1
  Li  Li385  1  0.11532878  0.07535769  0.55043665  1
  Li  Li386  1  0.18501151  0.13699678  0.58385366  1
  Li  Li387  1  0.11666701  0.12621981  0.63407835  1
  Li  Li388  1  0.20907585  0.03477800  0.65680453  1
  Li  Li389  1  0.18506809  0.15776341  0.67808869  1
  Li  Li390  1  0.18296245  0.06890337  0.73008555  1
  Li  Li391  1  0.03061348  0.18812696  0.77655532  1
  Li  Li392  1  0.21539106  0.00193165  0.80538549  1
  Li  Li393  1  -0.00257003  0.01713891  0.52500419  1
  Li  Li394  1  -0.07807212  0.03356431  0.49661493  1
  Li  Li395  1  0.28869315  0.39543190  0.52000892  1
  Li  Li396  1  0.17327985  0.23177737  0.61179354  1
  Li  Li397  1  0.20594273  0.33430444  0.63541634  1
  Li  Li398  1  0.29609721  0.23540930  0.65222585  1
  Li  Li399  1  0.14542461  0.29805766  0.69404068  1
  Li  Li400  1  0.16719982  0.19095254  0.75421604  1
  Li  Li401  1  -0.00741388  0.39288833  0.77657612  1
  Li  Li402  1  0.18217094  0.18005729  0.82371998  1
  Li  Li403  1  0.15076603  0.13111221  0.50764531  1
  Li  Li404  1  0.12700290  0.34055320  0.43259176  1
  Li  Li405  1  0.19181107  0.44840768  0.54622286  1
  Li  Li406  1  0.15324036  0.26600695  0.56288562  1
  Li  Li407  1  0.29125790  0.44663757  0.61535801  1
  Li  Li408  1  0.38025350  0.31799855  0.69254397  1
  Li  Li409  1  0.30349169  0.46113555  0.70544824  1
  Li  Li410  1  0.33790072  0.40171092  0.75168697  1
  Li  Li411  1  0.14340550  0.46815279  0.75635915  1
  Li  Li412  1  0.25749295  0.41804567  0.82322378  1
  Li  Li413  1  0.26413681  0.51932229  0.49948487  1
  Li  Li414  1  0.13570975  0.43634339  0.47379301  1
  Li  Li415  1  0.20904128  0.62716331  0.56283520  1
  Li  Li416  1  0.28841784  0.46065037  0.57315020  1
  Li  Li417  1  0.27659213  0.64547653  0.61836233  1
  Li  Li418  1  0.43770973  0.56853885  0.65696587  1
  Li  Li419  1  0.27745845  0.61255725  0.67644590  1
  Li  Li420  1  0.31515062  0.52736802  0.73025442  1
  Li  Li421  1  0.29482154  0.66159112  0.75060887  1
  Li  Li422  1  0.29195613  0.58670058  0.80428734  1
  Li  Li423  1  0.24295794  0.60857921  0.52639197  1
  Li  Li424  1  0.26523412  0.65280287  0.47892531  1
  Li  Li425  1  0.32611461  0.83024137  0.56922251  1
  Li  Li426  1  0.32901003  0.75552575  0.59659671  1
  Li  Li427  1  0.44515284  0.82167070  0.62862973  1
  Li  Li428  1  0.50283824  0.71989401  0.67392024  1
  Li  Li429  1  0.54200121  0.87803739  0.69442384  1
  Li  Li430  1  0.48196195  0.73200168  0.73787281  1
  Li  Li431  1  0.44974187  0.92806422  0.74929907  1
  Li  Li432  1  0.42638695  0.76290618  0.79168972  1
  Li  Li433  1  0.33094549  0.76081009  0.50361685  1
  Li  Li434  1  0.37972382  0.93009129  0.48447762  1
  Li  Li435  1  0.21817130  1.00149084  0.53249943  1
  Li  Li436  1  0.48170534  0.91890381  0.58740480  1
  Li  Li437  1  0.41523486  0.97216851  0.61345799  1
  Li  Li438  1  0.51212869  0.91025683  0.65472101  1
  Li  Li439  1  0.37293215  0.84096046  0.67508471  1
  Li  Li440  1  0.47612828  0.89724882  0.72200561  1
  Li  Li441  1  0.29999852  1.03084650  0.75569143  1
  Li  Li442  1  0.34321018  0.99293299  0.78345289  1
  Li  Li443  1  0.44120413  0.86628435  0.52481762  1
  Li  Li444  1  0.14708888  0.00873751  0.84642786  1
  Li  Li445  1  0.29499613  0.10533600  0.92379658  1
  Li  Li446  1  0.27589251  0.21793399  0.89797617  1
  Li  Li447  1  0.20536577  0.12807964  0.87080934  1
  Li  Li448  1  0.48634167  0.40598371  0.96951912  1
  Li  Li449  1  0.34334091  0.40171038  0.91710907  1
  Li  Li450  1  0.14546401  0.25324562  0.85014264  1
  Li  Li451  1  0.52058845  0.68615775  0.96593589  1
  Li  Li452  1  0.45989946  0.52792840  0.94000397  1
  Li  Li453  1  0.19688930  0.49026466  0.84621703  1
  Li  Li454  1  0.36779559  0.71526073  0.94199125  1
  Li  Li455  1  0.45764161  0.65564833  0.91151547  1
  Li  Li456  1  0.33518179  0.69299539  0.83236981  1
  Li  Li457  1  0.46648907  0.89965216  0.92039096  1
  Li  Li458  1  0.55888563  0.68079197  0.87928594  1
  Li  Li459  1  0.48425654  0.80863279  0.85514142  1
  Li  Li460  1  0.53194058  0.92930962  0.95415489  1
  Li  Li461  1  0.52919939  1.02728280  0.87035588  1
  Li  Li462  1  0.34110394  0.07439926  0.82715767  1
  Li  Li463  1  0.51245794  0.11060509  0.93474678  1
  Li  Li464  1  0.58784044  0.09570597  0.90183459  1
  Li  Li465  1  0.45253460  0.21727621  0.88000178  1
  Li  Li466  1  0.40624502  0.11635998  0.96231841  1
  Li  Li467  1  0.37847223  0.28802606  0.94287018  1
  Li  Li468  1  0.30009411  0.36933792  0.87396251  1
  Li  Li469  1  0.68039683  0.58730958  0.95284379  1
  Li  Li470  1  0.62605035  0.49767027  0.92110703  1
  Li  Li471  1  0.40696274  0.56377949  0.85693247  1
  Li  Li472  1  0.61786615  0.76299476  0.93261144  1
  Li  Li473  1  0.70562396  0.70520413  0.90418094  1
  Li  Li474  1  0.63404481  0.68419971  0.84734302  1
  Li  Li475  1  0.69744677  1.01493292  0.92877482  1
  Li  Li476  1  0.65053117  0.90165541  0.89867276  1
  Li  Li477  1  0.88475215  0.84204915  0.84448041  1
  Li  Li478  1  0.73640688  1.17178831  0.95544346  1
  Li  Li479  1  0.69993284  0.91227698  0.86690255  1
  Li  Li480  1  0.52813063  0.00135718  0.83654939  1
  Li  Li481  1  0.76673855  0.14765258  0.87805155  1
  Li  Li482  1  0.60500009  0.24554589  0.85600011  1
  Li  Li483  1  0.38696593  0.33817491  0.84590976  1
  Li  Li484  1  0.61384215  0.34182034  0.94527378  1
  Li  Li485  1  0.67040593  0.32041665  0.89141085  1
  Li  Li486  1  0.49759879  0.26857577  0.91328811  1
  Li  Li487  1  0.86485851  0.48300697  0.94296901  1
  Li  Li488  1  0.84554087  0.50695860  0.91172829  1
  Li  Li489  1  0.49442516  0.45990611  0.89375017  1
  Li  Li490  1  0.82901365  0.69604661  0.93084204  1
  Li  Li491  1  0.75190255  0.54709675  0.88623192  1
  Li  Li492  1  0.82610836  0.60520852  0.84809829  1
  Li  Li493  1  0.87412302  0.92010204  0.91927667  1
  Li  Li494  1  0.80038336  0.74279337  0.87190867  1
  Li  Li495  1  0.95174652  0.73448292  0.82173749  1
  Li  Li496  1  0.76959061  0.87747576  0.95412160  1
  Li  Li497  1  0.87929097  0.95468534  0.88885517  1
  Li  Li498  1  0.71241464  -0.08823147  0.83630227  1
  Li  Li499  1  0.85326834  0.14643572  0.90646647  1
  Li  Li500  1  0.73914288  0.11621379  0.84855745  1
  Li  Li501  1  0.58631715  0.21726255  0.82529941  1
  Li  Li502  1  0.73583337  0.27210947  0.92304344  1
  Li  Li503  1  0.90880173  0.36530609  0.89084407  1
  Li  Li504  1  0.79799782  0.40234515  0.86479565  1
  Li  Li505  1  0.76714777  0.41521503  0.97130342  1
  Li  Li506  1  0.97981693  0.36459273  0.92402816  1
  Li  Li507  1  0.62961276  0.44296489  0.83874691  1
  Li  Li508  1  0.90450913  0.69573136  0.96459236  1
  Li  Li509  1  1.04740299  0.66513930  0.92922450  1
  Li  Li510  1  0.97792808  0.61146460  0.87430102  1
  Li  Li511  1  -0.00105578  0.87646678  0.94462656  1
  Li  Li512  1  -0.05405746  0.74724891  0.90006513  1
  Li  Li513  1  1.03271749  0.86974750  0.86991203  1
  Li  Li514  1  -0.03598916  1.07379150  0.96739051  1
  Li  Li515  1  0.11276446  0.99459693  0.89386153  1
  Li  Li516  1  0.81972035  -0.08458625  0.81154549  1
  Li  Li517  1  1.07469911  0.13531929  0.91537298  1
  Li  Li518  1  0.93981206  0.27887183  0.85720248  1
  Li  Li519  1  0.76821378  0.14101379  0.81871008  1
  Li  Li520  1  -0.07507899  0.12842569  0.93862073  1
  Li  Li521  1  0.14089673  0.36610597  0.90212459  1
  Li  Li522  1  0.79897698  0.33321585  0.83497440  1
  Li  Li523  1  0.00232804  0.35276064  0.95834119  1
  Li  Li524  1  0.10309746  0.44926872  0.87277195  1
  Li  Li525  1  -0.00948954  0.50586648  0.84683359  1
  Li  Li526  1  0.12869229  0.65195983  0.95705256  1
  Li  Li527  1  0.07577820  0.56692294  0.90149064  1
  Li  Li528  1  0.07306272  0.74396100  0.84802119  1
  Li  Li529  1  0.11756132  0.89427451  0.91876934  1
  Li  Li530  1  0.16750164  0.77912915  0.88838081  1
  Li  Li531  1  0.28457577  0.94507382  0.87147883  1
  Li  Li532  1  0.14944377  0.92447730  0.97030210  1
  Li  Li533  1  0.34701522  1.00464392  0.89955540  1
  Li  Li534  1  -0.06085454  0.04214278  0.86032621  1
  Li  Li535  1  0.15587012  0.08260560  0.94581857  1
  Li  Li536  1  0.03057631  0.19587591  0.88295308  1
  Li  Li537  1  -0.05609498  0.11642918  0.83273334  1
  Li  Li538  1  0.21673854  0.23743710  0.96943182  1
  Li  Li539  1  0.16166165  0.30191459  0.93758701  1
  Li  Li540  1  0.01641809  0.34307545  0.82606688  1
  Li  Li541  1  0.27429094  0.48540761  0.95943613  1
  Li  Li542  1  0.30230862  0.57675552  0.88924064  1
  Li  Li543  1  0.11808417  0.61486930  0.82356565  1
  Li  Li544  1  0.20560438  0.53216922  0.92840795  1
  Li  Li545  1  0.24021560  0.68398577  0.86405760  1
  Li  Li546  1  0.20370328  0.76761930  0.79931702  1
  Li  Li547  1  0.26226353  0.75050966  0.91364680  1
  Li  Li548  1  0.42155247  0.82349664  0.88678433  1
  Li  Li549  1  0.31305689  0.88646071  0.84619704  1
  Li  Li550  1  0.27405073  0.89941374  0.94258182  1
  Li  Li551  1  0.38539467  1.12909052  0.85252844  1
  La  La552  1  0.67068567  0.83665026  0.16485769  1
  La  La553  1  0.57210035  0.14314499  0.17347781  1
  La  La554  1  0.72821037  0.49562003  0.17359478  1
  La  La555  1  0.10970453  0.18947940  0.19730460  1
  La  La556  1  0.22233680  0.52517971  0.19201799  1
  La  La557  1  0.65450962  0.28327943  0.20815266  1
  La  La558  1  0.13105223  0.82139867  0.20861092  1
  La  La559  1  0.83073676  0.87123583  0.21833813  1
  La  La560  1  0.43925436  0.75019561  0.21702125  1
  La  La561  1  0.81870500  0.35691113  0.24365750  1
  La  La562  1  0.46205170  0.22862556  0.24297872  1
  La  La563  1  0.63579174  0.78490952  0.25309129  1
  La  La564  1  0.13830416  0.31602816  0.25395648  1
  La  La565  1  0.07580358  0.61456093  0.26683576  1
  La  La566  1  0.19431445  0.01559376  0.26612482  1
  La  La567  1  0.59015336  0.64434087  0.28992704  1
  La  La568  1  0.69787681  -0.01122783  0.29145961  1
  La  La569  1  0.14904129  0.83243128  0.30136088  1
  La  La570  1  0.62847423  0.33088982  0.30186195  1
  La  La571  1  0.32222411  0.38758753  0.31395457  1
  La  La572  1  0.93274422  0.28779809  0.31442940  1
  La  La573  1  0.30096611  0.88502591  0.33696973  1
  La  La574  1  0.95383618  0.77901259  0.33803775  1
  La  La575  1  0.11467463  0.32385922  0.34810216  1
  La  La576  1  0.61261160  0.84072196  0.34775773  1
  La  La577  1  0.55368224  0.15260784  0.36042508  1
  La  La578  1  0.64577807  0.53025423  0.36222147  1
  La  La579  1  0.03572604  0.15517020  0.38344723  1
  La  La580  1  0.15032106  0.52030663  0.38464034  1
  La  La581  1  0.59482695  0.36593089  0.39601491  1
  La  La582  1  0.10564229  0.84340043  0.39507262  1
  La  La583  1  0.80452585  0.92625161  0.40816679  1
  La  La584  1  0.42352422  0.81971751  0.40714703  1
  La  La585  1  0.83847632  0.44288260  0.43109644  1
  La  La586  1  0.42312421  0.27921892  0.42987582  1
  La  La587  1  0.60905882  0.82328632  0.43930204  1
  Zr  Zr588  1  0.89556327  0.30445430  0.18417838  1
  Zr  Zr589  1  0.37317377  0.32849166  0.17729136  1
  Zr  Zr590  1  0.90440092  0.79973479  0.18268106  1
  Zr  Zr591  1  0.39854272  0.82273160  0.18024199  1
  Zr  Zr592  1  0.12203704  0.07391680  0.23004483  1
  Zr  Zr593  1  0.15033246  0.58489387  0.23166904  1
  Zr  Zr594  1  0.62454242  0.03012047  0.23192977  1
  Zr  Zr595  1  0.64042890  0.53719590  0.23043158  1
  Zr  Zr596  1  0.39754456  0.82977199  0.27887595  1
  Zr  Zr597  1  0.89878178  0.83138922  0.27961950  1
  Zr  Zr598  1  0.37433846  0.32244858  0.27842864  1
  Zr  Zr599  1  0.87794783  0.32964114  0.27916894  1
  Zr  Zr600  1  0.61271053  0.58476259  0.32649208  1
  Zr  Zr601  1  0.62125500  0.09120669  0.32576600  1
  Zr  Zr602  1  0.11599365  0.57780827  0.32688561  1
  Zr  Zr603  1  0.11863660  0.07878347  0.32601122  1
  Zr  Zr604  1  0.84558727  0.34788161  0.37433040  1
  Zr  Zr605  1  0.35004008  0.35864967  0.37445997  1
  Zr  Zr606  1  0.86048237  0.85005345  0.37313491  1
  Zr  Zr607  1  0.37138890  0.86749618  0.37315524  1
  Zr  Zr608  1  0.11032403  0.10999653  0.41986020  1
  Zr  Zr609  1  0.12026242  0.61321579  0.41936678  1
  Zr  Zr610  1  0.61463524  0.09628080  0.42419252  1
  Zr  Zr611  1  0.61793052  0.57822003  0.42322830  1
  O  O612  1  0.88612605  0.92160963  0.16775581  1
  O  O613  1  0.46903919  0.72986530  0.16491324  1
  O  O614  1  0.75102385  0.30417114  0.17018313  1
  O  O615  1  0.44630850  0.23405680  0.16448047  1
  O  O616  1  0.33806170  0.95408919  0.17258535  1
  O  O617  1  0.92190001  0.64647376  0.17484840  1
  O  O618  1  0.96785227  0.17444494  0.17867853  1
  O  O619  1  0.32059939  0.46876522  0.17211472  1
  O  O620  1  0.03235360  0.45972352  0.18044636  1
  O  O621  1  0.21897880  0.16063492  0.17709738  1
  O  O622  1  0.70524339  0.68944924  0.17658581  1
  O  O623  1  0.57768528  0.94256566  0.17943832  1
  O  O624  1  0.22840110  0.69009915  0.17537882  1
  O  O625  1  0.08309838  0.88011614  0.18534356  1
  O  O626  1  0.53559319  0.44022396  0.18351173  1
  O  O627  1  0.74826937  0.16343870  0.19459984  1
  O  O628  1  0.80748426  0.43987507  0.19528018  1
  O  O629  1  0.49453352  0.18017369  0.19484187  1
  O  O630  1  0.78851365  0.88581076  0.19434703  1
  O  O631  1  0.42512886  0.67318061  0.19409376  1
  O  O632  1  0.30195466  0.33666026  0.19887751  1
  O  O633  1  -0.01752892  0.30888265  0.20498105  1
  O  O634  1  0.35436979  0.86432316  0.20184813  1
  O  O635  1  0.91040394  0.73838333  0.20508582  1
  O  O636  1  0.06810405  0.59799773  0.21148714  1
  O  O637  1  0.20739423  0.06218593  0.20966804  1
  O  O638  1  0.63975121  0.61369955  0.21087927  1
  O  O639  1  0.62557585  0.91235033  0.21549899  1
  O  O640  1  0.96392117  0.07656352  0.21880660  1
  O  O641  1  0.28750921  0.54196283  0.22140201  1
  O  O642  1  0.48760464  0.08907457  0.22413381  1
  O  O643  1  0.79372921  0.48315668  0.22439758  1
  O  O644  1  0.51928055  0.37552666  0.22198402  1
  O  O645  1  0.75771698  0.19457047  0.22637399  1
  O  O646  1  0.25430275  0.77450146  0.22957776  1
  O  O647  1  0.04372371  0.88864209  0.22922647  1
  O  O648  1  0.18155770  0.26074990  0.22896637  1
  O  O649  1  0.03263697  0.41650740  0.23748932  1
  O  O650  1  0.50105424  0.87421508  0.24148205  1
  O  O651  1  0.77462972  0.69825816  0.23897835  1
  O  O652  1  0.76307954  0.97536009  0.24219807  1
  O  O653  1  0.52744465  0.60743349  0.24159679  1
  O  O654  1  1.03198648  0.65688617  0.24317733  1
  O  O655  1  0.26941099  0.06342788  0.24218796  1
  O  O656  1  0.59977925  0.13123741  0.25017749  1
  O  O657  1  0.63991360  0.42649825  0.24959216  1
  O  O658  1  0.04702768  0.10529289  0.25047712  1
  O  O659  1  0.23573555  0.58364898  0.25238940  1
  O  O660  1  0.35568738  0.38730033  0.25730944  1
  O  O661  1  0.87676550  0.23083972  0.26010720  1
  O  O662  1  0.30507727  0.87163057  0.26174752  1
  O  O663  1  1.00463848  0.85484161  0.26136686  1
  O  O664  1  0.85645269  0.47667375  0.26694958  1
  O  O665  1  0.41830007  0.17788592  0.26970214  1
  O  O666  1  0.48053215  0.70308561  0.27100267  1
  O  O667  1  0.82861756  0.96320223  0.27222771  1
  O  O668  1  0.55493154  0.97089358  0.27375002  1
  O  O669  1  0.75071496  0.68692832  0.27222029  1
  O  O670  1  0.19492974  0.21036183  0.27643571  1
  O  O671  1  0.06184839  0.41866919  0.27593554  1
  O  O672  1  0.69215589  0.26367555  0.28067279  1
  O  O673  1  0.54886494  0.43913298  0.28132448  1
  O  O674  1  0.05864555  0.95501683  0.28875759  1
  O  O675  1  0.24853696  0.68168822  0.28531766  1
  O  O676  1  0.32552502  0.93759190  0.29144761  1
  O  O677  1  0.96507120  0.69548359  0.28859948  1
  O  O678  1  0.31280445  0.44473341  0.28975068  1
  O  O679  1  0.91837940  0.19342277  0.29050654  1
  O  O680  1  0.77763790  0.82370652  0.29694954  1
  O  O681  1  0.50644185  0.82369203  0.29780341  1
  O  O682  1  0.85293493  0.40803757  0.29957933  1
  O  O683  1  0.38128278  0.24373860  0.29990916  1
  O  O684  1  0.54399730  0.10759855  0.30613389  1
  O  O685  1  0.70624937  0.56578998  0.30781884  1
  O  O686  1  0.11314107  0.19005177  0.30865970  1
  O  O687  1  0.09978400  0.47108493  0.30897647  1
  O  O688  1  0.47309062  0.61385470  0.31461890  1
  O  O689  1  0.75769285  0.03762459  0.31676468  1
  O  O690  1  0.98125884  0.64860538  0.31917448  1
  O  O691  1  0.24084184  -0.00081707  0.31833980  1
  O  O692  1  0.97268043  0.93127009  0.32092516  1
  O  O693  1  0.26071757  0.72602805  0.31915567  1
  O  O694  1  0.73296205  0.26923260  0.32450117  1
  O  O695  1  0.51675156  0.40509317  0.32529233  1
  O  O696  1  0.69091965  0.77094129  0.32848565  1
  O  O697  1  0.50887788  0.91221971  0.32901593  1
  O  O698  1  0.99052350  0.41995550  0.33634772  1
  O  O699  1  0.25172640  0.23299429  0.33498575  1
  O  O700  1  0.24974276  0.51059945  0.33598291  1
  O  O701  1  0.99986839  0.15171526  0.33761170  1
  O  O702  1  0.48811060  0.14503772  0.33706703  1
  O  O703  1  0.75111404  0.54557849  0.33886008  1
  O  O704  1  0.12833365  0.70412443  0.34404270  1
  O  O705  1  0.12195579  0.97119186  0.34501578  1
  O  O706  1  0.53140442  0.61669008  0.34753529  1
  O  O707  1  0.69686338  0.08289856  0.34721098  1
  O  O708  1  0.84038957  0.92845034  0.35367476  1
  O  O709  1  0.38596072  0.77345649  0.35468290  1
  O  O710  1  0.73315766  0.33948498  0.35642318  1
  O  O711  1  0.46030327  0.35495825  0.35770833  1
  O  O712  1  0.32884567  1.00601676  0.36315364  1
  O  O713  1  0.92925923  0.73063925  0.36382012  1
  O  O714  1  0.92656397  0.23015341  0.36601811  1
  O  O715  1  0.28859290  0.49642877  0.36626822  1
  O  O716  1  -0.01598700  0.50112433  0.36841622  1
  O  O717  1  0.20381189  0.21318227  0.36717172  1
  O  O718  1  0.68786800  0.73497686  0.37377064  1
  O  O719  1  0.55137784  0.96811488  0.37254240  1
  O  O720  1  0.19000763  0.76918800  0.37642692  1
  O  O721  1  0.03683579  0.96255085  0.37651461  1
  O  O722  1  0.50601631  0.48635797  0.38294122  1
  O  O723  1  0.69133426  0.22347154  0.38556348  1
  O  O724  1  0.76567390  0.48460640  0.38249592  1
  O  O725  1  0.40758868  0.23538932  0.38689657  1
  O  O726  1  0.80871195  0.99086471  0.38447542  1
  O  O727  1  0.43790450  0.74091628  0.38474457  1
  O  O728  1  0.20768151  0.35231310  0.39129640  1
  O  O729  1  0.93607217  0.35615826  0.39363487  1
  O  O730  1  0.35385872  0.94705427  0.39430499  1
  O  O731  1  0.87756790  0.78701395  0.39638025  1
  O  O732  1  0.02836526  0.62370865  0.39970500  1
  O  O733  1  0.17897278  0.07556783  0.40017437  1
  O  O734  1  0.60974660  0.70533980  0.40811347  1
  O  O735  1  0.61862696  0.98095145  0.40667496  1
  O  O736  1  0.96704229  0.14406636  0.40863147  1
  O  O737  1  0.26527904  0.58256129  0.40789270  1
  O  O738  1  0.49668692  0.16486829  0.41363003  1
  O  O739  1  0.75313195  0.52324666  0.41250671  1
  O  O740  1  0.47823943  0.44004246  0.41382862  1
  O  O741  1  0.75704797  0.24126853  0.42159236  1
  O  O742  1  0.20655748  0.80387156  0.41707127  1
  O  O743  1  0.99526582  0.93461167  0.42370695  1
  O  O744  1  0.23681668  0.28235564  0.42030398  1
  O  O745  1  1.03472977  0.43387122  0.42388520  1
  O  O746  1  0.46594396  0.91069106  0.43086554  1
  O  O747  1  0.74818706  0.72434794  0.43425748  1
  O  O748  1  0.75372787  0.01318489  0.43242905  1
  O  O749  1  0.49350398  0.62378143  0.43652955  1
  O  O750  1  0.97391547  0.64083053  0.42958671  1
  O  O751  1  0.25134723  0.06276182  0.43002034  1
  O  O752  1  0.53623409  0.14636701  0.44233127  1
  O  O753  1  0.61922091  0.43217300  0.43807870  1
  O  O754  1  1.03335806  0.16459314  0.43798977  1
  O  O755  1  0.23633978  0.63351965  0.43753966  1
