# generated using pymatgen
data_Li165La9Zr5O34
_symmetry_space_group_name_H-M   'P 1'
_cell_length_a   13.74574147
_cell_length_b   14.15151409
_cell_length_c   78.61399562
_cell_angle_alpha   89.55813814
_cell_angle_beta   89.90308147
_cell_angle_gamma   90.05545939
_symmetry_Int_Tables_number   1
_chemical_formula_structural   Li165La9Zr5O34
_chemical_formula_sum   'Li660 La36 Zr20 O136'
_cell_volume   15291.75053530
_cell_formula_units_Z   4
loop_
 _symmetry_equiv_pos_site_id
 _symmetry_equiv_pos_as_xyz
  1  'x, y, z'
loop_
 _atom_site_type_symbol
 _atom_site_label
 _atom_site_symmetry_multiplicity
 _atom_site_fract_x
 _atom_site_fract_y
 _atom_site_fract_z
 _atom_site_occupancy
  Li  Li0  1  0.87676431  0.97357234  0.17174018  1
  Li  Li1  1  0.56039387  0.08927795  0.17236939  1
  Li  Li2  1  0.18707593  0.38165356  0.17249613  1
  Li  Li3  1  0.36317602  0.54617951  0.17527255  1
  Li  Li4  1  0.60677979  0.62285368  0.17947497  1
  Li  Li5  1  0.99887426  0.37187604  0.16919452  1
  Li  Li6  1  0.09782103  0.86988003  0.17466043  1
  Li  Li7  1  0.40428810  0.15455843  0.17987787  1
  Li  Li8  1  0.68922249  0.91473472  0.18875996  1
  Li  Li9  1  0.77851000  0.07737371  0.18714245  1
  Li  Li10  1  0.19394044  0.57574502  0.19225775  1
  Li  Li11  1  0.30510949  0.42058394  0.19399683  1
  Li  Li12  1  0.86501634  0.24537782  0.20002509  1
  Li  Li13  1  0.63478870  0.73916060  0.20205338  1
  Li  Li14  1  0.37080006  0.25433364  0.20386201  1
  Li  Li15  1  0.12478023  0.75253347  0.19880182  1
  Li  Li16  1  0.34297366  0.09992144  0.21400600  1
  Li  Li17  1  0.16607035  0.88024852  0.21341910  1
  Li  Li18  1  0.85542190  0.39686174  0.21690881  1
  Li  Li19  1  0.69708095  0.59244684  0.21517999  1
  Li  Li20  1  0.43901943  0.34288362  0.22630796  1
  Li  Li21  1  0.10224941  0.65277161  0.22288140  1
  Li  Li22  1  0.92388010  0.14829311  0.22223156  1
  Li  Li23  1  0.60232282  0.84166009  0.22268962  1
  Li  Li24  1  0.33411708  0.93866256  0.23193544  1
  Li  Li25  1  0.16756947  0.05708254  0.22783705  1
  Li  Li26  1  0.68106255  0.38760513  0.22090010  1
  Li  Li27  1  0.94028666  0.57036781  0.23291749  1
  Li  Li28  1  0.43012029  0.42380738  0.25304605  1
  Li  Li29  1  0.12795636  0.58496135  0.25476730  1
  Li  Li30  1  0.67078917  0.95776049  0.25592952  1
  Li  Li31  1  0.83774374  0.06384637  0.25482861  1
  Li  Li32  1  0.02212966  0.12246566  0.24655583  1
  Li  Li33  1  0.49613362  0.87870813  0.24481044  1
  Li  Li34  1  0.59381373  0.33857569  0.25373914  1
  Li  Li35  1  0.95104130  0.66665446  0.25704652  1
  Li  Li36  1  0.21351457  0.41315019  0.27027860  1
  Li  Li37  1  0.33203296  0.58438845  0.26583342  1
  Li  Li38  1  0.66041516  0.14784141  0.27154132  1
  Li  Li39  1  0.83554318  0.90252029  0.27174085  1
  Li  Li40  1  0.39892725  0.79203511  0.26939654  1
  Li  Li41  1  0.13385164  0.22966721  0.28040725  1
  Li  Li42  1  0.87536601  0.74440917  0.28261379  1
  Li  Li43  1  0.64662529  0.29222848  0.28619798  1
  Li  Li44  1  0.78345654  0.60081800  0.29175552  1
  Li  Li45  1  0.69229250  0.45307396  0.29480857  1
  Li  Li46  1  0.29852453  0.89672218  0.29471422  1
  Li  Li47  1  0.21644796  0.06658815  0.29740682  1
  Li  Li48  1  0.91356812  0.84941012  0.30363358  1
  Li  Li49  1  0.57167152  0.15806239  0.30223781  1
  Li  Li50  1  0.39833777  0.68715612  0.29402594  1
  Li  Li51  1  0.06958018  0.35345342  0.29940594  1
  Li  Li52  1  0.85788588  0.40933780  0.30487269  1
  Li  Li53  1  0.64651789  0.60228309  0.31304615  1
  Li  Li54  1  0.07607951  0.91328745  0.31238306  1
  Li  Li55  1  0.40929550  0.08408804  0.31113634  1
  Li  Li56  1  0.91520447  0.92806491  0.33130742  1
  Li  Li57  1  0.56671510  0.07696296  0.32983743  1
  Li  Li58  1  0.16988721  0.44893166  0.33476666  1
  Li  Li59  1  0.33311826  0.54458939  0.33368862  1
  Li  Li60  1  0.48477657  0.62342257  0.32072252  1
  Li  Li61  1  0.97916003  0.37941940  0.32561208  1
  Li  Li62  1  0.07714505  0.82203486  0.33880182  1
  Li  Li63  1  0.39835886  0.16647901  0.34066945  1
  Li  Li64  1  0.74119190  1.00724040  0.33943206  1
  Li  Li65  1  0.86377299  0.12175521  0.35042514  1
  Li  Li66  1  0.15824641  0.60166372  0.35042262  1
  Li  Li67  1  0.33836434  0.34610213  0.35024987  1
  Li  Li68  1  0.85318533  0.28314314  0.36176280  1
  Li  Li69  1  0.59368245  0.67391471  0.34198987  1
  Li  Li70  1  0.32827500  0.20616912  0.36830762  1
  Li  Li71  1  0.12229429  0.74463050  0.36366820  1
  Li  Li72  1  0.29490600  0.03680015  0.37372457  1
  Li  Li73  1  0.21375544  0.88718093  0.36777198  1
  Li  Li74  1  0.77889234  0.47512346  0.37808080  1
  Li  Li75  1  0.68774588  0.62469665  0.36778392  1
  Li  Li76  1  0.44211330  0.34647156  0.37693321  1
  Li  Li77  1  0.07807196  0.62922916  0.38169827  1
  Li  Li78  1  0.95769020  0.14867559  0.37970621  1
  Li  Li79  1  0.64254722  0.80597999  0.35933785  1
  Li  Li80  1  0.39353522  0.90685396  0.39059062  1
  Li  Li81  1  0.23548513  0.25765028  0.39163238  1
  Li  Li82  1  0.59804395  0.41825467  0.38540604  1
  Li  Li83  1  0.89801507  0.58816541  0.39376537  1
  Li  Li84  1  0.97691500  0.87985253  0.44048761  1
  Li  Li85  1  0.14990190  0.09757181  0.47489283  1
  Li  Li86  1  0.12019060  0.05147689  0.51281781  1
  Li  Li87  1  0.09413847  -0.14069262  0.55823435  1
  Li  Li88  1  0.17930887  0.03741164  0.60464186  1
  Li  Li89  1  0.10006382  0.09063607  0.63968133  1
  Li  Li90  1  0.23677164  -0.00965512  0.66346629  1
  Li  Li91  1  0.07360343  0.04987524  0.70278745  1
  Li  Li92  1  0.19332509  0.07664726  0.75715580  1
  Li  Li93  1  0.13632916  0.91976126  0.41827771  1
  Li  Li94  1  0.01935463  0.07093060  0.44379688  1
  Li  Li95  1  0.19030206  0.21431826  0.49857715  1
  Li  Li96  1  0.10270645  0.22533148  0.52860639  1
  Li  Li97  1  0.08630293  0.05292711  0.54786061  1
  Li  Li98  1  0.17292030  0.30170878  0.58485567  1
  Li  Li99  1  0.13623810  0.21998971  0.61702148  1
  Li  Li100  1  0.14739400  0.12780756  0.67534002  1
  Li  Li101  1  -0.01494028  0.19017301  0.68494037  1
  Li  Li102  1  0.20345009  0.21804640  0.78520729  1
  Li  Li103  1  0.94828668  0.01211355  0.40971115  1
  Li  Li104  1  1.00578284  0.21458955  0.46684838  1
  Li  Li105  1  0.03195593  0.32601515  0.49593407  1
  Li  Li106  1  0.17863435  0.39432625  0.51164718  1
  Li  Li107  1  0.09479782  0.14047030  0.57966842  1
  Li  Li108  1  0.15174835  0.42309705  0.60751863  1
  Li  Li109  1  0.04471591  0.37100275  0.63408329  1
  Li  Li110  1  0.07728001  0.26615459  0.65814387  1
  Li  Li111  1  0.04811690  0.36979850  0.68581828  1
  Li  Li112  1  0.21771196  0.40629174  0.73714784  1
  Li  Li113  1  0.08968052  0.17539502  0.41067374  1
  Li  Li114  1  -0.04606501  0.43780254  0.46978071  1
  Li  Li115  1  0.12309410  0.49218814  0.48352811  1
  Li  Li116  1  0.11011618  0.56792768  0.51603710  1
  Li  Li117  1  0.02505716  0.42867845  0.57564765  1
  Li  Li118  1  0.21419897  0.48991329  0.57577581  1
  Li  Li119  1  0.07996409  0.54808918  0.63406239  1
  Li  Li120  1  0.16996522  0.43931823  0.66634706  1
  Li  Li121  1  0.11464934  0.56109491  0.68759387  1
  Li  Li122  1  0.16681365  0.58616698  0.71999537  1
  Li  Li123  1  -0.01654090  0.34883500  0.44063773  1
  Li  Li124  1  0.00470377  0.64742247  0.44494832  1
  Li  Li125  1  -0.00469166  0.62663617  0.48046785  1
  Li  Li126  1  0.15776801  0.71667282  0.53560790  1
  Li  Li127  1  0.09162281  0.54535766  0.55126909  1
  Li  Li128  1  0.27777608  0.66053108  0.59209982  1
  Li  Li129  1  0.08982453  0.73021522  0.62503839  1
  Li  Li130  1  0.21575446  0.62136363  0.65634363  1
  Li  Li131  1  0.03903893  0.69856629  0.70126241  1
  Li  Li132  1  0.18861873  0.78563585  0.71928610  1
  Li  Li133  1  0.07130851  0.55923880  0.41363768  1
  Li  Li134  1  0.87360827  0.75257433  0.46063024  1
  Li  Li135  1  0.14086166  0.91181531  0.49031788  1
  Li  Li136  1  0.23456005  0.93023881  0.53735467  1
  Li  Li137  1  0.13415098  0.68206593  0.56868716  1
  Li  Li138  1  0.21430662  0.84746502  0.60077895  1
  Li  Li139  1  0.04569123  0.92149534  0.61721913  1
  Li  Li140  1  0.13187573  0.82375863  0.65552378  1
  Li  Li141  1  0.07881362  0.87583554  0.68853719  1
  Li  Li142  1  0.15932160  0.87481792  0.75621589  1
  Li  Li143  1  0.17223058  0.74269782  0.43332436  1
  Li  Li144  1  0.14871652  0.93390752  0.45399947  1
  Li  Li145  1  0.30132640  0.00131047  0.50450356  1
  Li  Li146  1  0.27384109  0.11290215  0.53133433  1
  Li  Li147  1  0.22683906  -0.00299521  0.57095169  1
  Li  Li148  1  0.36620485  -0.02517173  0.59525437  1
  Li  Li149  1  0.29747611  0.08061212  0.62827927  1
  Li  Li150  1  0.41450892  -0.00678684  0.65020423  1
  Li  Li151  1  0.30441518  0.10248698  0.69138721  1
  Li  Li152  1  0.35790062  0.10555918  0.74203135  1
  Li  Li153  1  0.15485588  0.10177140  0.38429138  1
  Li  Li154  1  0.20286381  0.08011957  0.43877674  1
  Li  Li155  1  0.30052649  0.20260918  0.46058860  1
  Li  Li156  1  0.31164708  0.29547788  0.52510715  1
  Li  Li157  1  0.23238543  0.18238499  0.55950427  1
  Li  Li158  1  0.30645711  0.15401654  0.59497017  1
  Li  Li159  1  0.24011681  0.23133494  0.64482297  1
  Li  Li160  1  0.36506968  0.14440057  0.66122869  1
  Li  Li161  1  0.10932352  0.24137777  0.70845753  1
  Li  Li162  1  0.32689584  0.27651314  0.75672827  1
  Li  Li163  1  0.27795497  0.04949308  0.40861078  1
  Li  Li164  1  0.13775286  0.24826293  0.44068576  1
  Li  Li165  1  0.15927809  0.33215852  0.46959735  1
  Li  Li166  1  0.39664868  0.46419087  0.51896059  1
  Li  Li167  1  0.18679119  0.34940111  0.55191251  1
  Li  Li168  1  0.29368625  0.30716545  0.61269714  1
  Li  Li169  1  0.23403934  0.40786806  0.63862906  1
  Li  Li170  1  0.25068612  0.28543570  0.67854074  1
  Li  Li171  1  0.20698650  0.42066190  0.70153546  1
  Li  Li172  1  0.35343730  0.49325582  0.72059572  1
  Li  Li173  1  0.31461521  0.22836501  0.42233589  1
  Li  Li174  1  0.11761885  0.48217192  0.44717718  1
  Li  Li175  1  0.27296264  0.55045689  0.49745825  1
  Li  Li176  1  0.31743514  0.64755952  0.52222796  1
  Li  Li177  1  0.24149797  0.49956615  0.53556356  1
  Li  Li178  1  0.34466536  0.46113830  0.59747520  1
  Li  Li179  1  0.25594147  0.56149098  0.62234850  1
  Li  Li180  1  0.34721751  0.47847964  0.66577298  1
  Li  Li181  1  0.29911570  0.58311765  0.69369698  1
  Li  Li182  1  0.32247972  0.65933443  0.73208021  1
  Li  Li183  1  0.19131003  0.38685925  0.41965493  1
  Li  Li184  1  0.17712773  0.63986223  0.46337001  1
  Li  Li185  1  0.15732137  0.71438101  0.49504761  1
  Li  Li186  1  0.34868022  0.78909099  0.54083990  1
  Li  Li187  1  0.30343078  0.62162684  0.55752358  1
  Li  Li188  1  0.43547585  0.61184320  0.61209663  1
  Li  Li189  1  0.27490035  0.73786843  0.62761863  1
  Li  Li190  1  0.39146285  0.70553707  0.67436261  1
  Li  Li191  1  0.20901469  0.74230040  0.68441538  1
  Li  Li192  1  0.33841694  0.81137077  0.74738887  1
  Li  Li193  1  0.28275988  0.55955957  0.42601025  1
  Li  Li194  1  0.05708015  0.79365297  0.46674912  1
  Li  Li195  1  0.28447288  0.82049907  0.50838632  1
  Li  Li196  1  0.42341574  0.97532120  0.53573816  1
  Li  Li197  1  0.26313103  0.81311248  0.56987521  1
  Li  Li198  1  0.41119238  0.79103225  0.59968695  1
  Li  Li199  1  0.20129573  0.92354218  0.63262977  1
  Li  Li200  1  0.31602823  0.82424780  0.65648037  1
  Li  Li201  1  0.23122885  0.93607564  0.69675470  1
  Li  Li202  1  0.32172592  0.95919796  0.76667571  1
  Li  Li203  1  0.21874364  0.72173749  0.39756240  1
  Li  Li204  1  0.31409015  0.00700241  0.46905237  1
  Li  Li205  1  0.47417603  0.01594981  0.49248379  1
  Li  Li206  1  0.45365306  0.13445446  0.52102940  1
  Li  Li207  1  0.42726390  -0.09580552  0.56601453  1
  Li  Li208  1  0.55827510  0.00015792  0.58463179  1
  Li  Li209  1  0.48943409  0.05200975  0.61736139  1
  Li  Li210  1  0.51516639  0.04669922  0.67652878  1
  Li  Li211  1  0.43799593  0.05258400  0.71050490  1
  Li  Li212  1  0.50811501  0.11897208  0.75933697  1
  Li  Li213  1  0.32042035  0.88961777  0.43603352  1
  Li  Li214  1  0.38483250  0.07217924  0.43802647  1
  Li  Li215  1  0.36375765  0.17232338  0.49238723  1
  Li  Li216  1  0.41880009  0.23559707  0.54910204  1
  Li  Li217  1  0.39960720  0.08524094  0.56543777  1
  Li  Li218  1  0.50138207  0.17343690  0.59024972  1
  Li  Li219  1  0.41856202  0.21745227  0.62807618  1
  Li  Li220  1  0.44745460  0.21602659  0.68932597  1
  Li  Li221  1  0.29917946  0.27313030  0.71710621  1
  Li  Li222  1  0.50563370  0.27866216  0.76880839  1
  Li  Li223  1  0.49676812  0.92970626  0.42311442  1
  Li  Li224  1  0.30500779  0.36871591  0.44553170  1
  Li  Li225  1  0.31459539  0.36385344  0.48866865  1
  Li  Li226  1  0.52698275  0.36447575  0.53835932  1
  Li  Li227  1  0.36002616  0.29979592  0.57805648  1
  Li  Li228  1  0.48212035  0.33112928  0.60445064  1
  Li  Li229  1  0.40773666  0.43637880  0.63053435  1
  Li  Li230  1  0.41221620  0.31491325  0.65800829  1
  Li  Li231  1  0.39060154  0.38806029  0.69369918  1
  Li  Li232  1  0.52668644  0.46620860  0.70993604  1
  Li  Li233  1  0.47718439  0.26798218  0.43798941  1
  Li  Li234  1  0.30426016  0.50977211  0.46528201  1
  Li  Li235  1  0.46122822  0.50473117  0.48789159  1
  Li  Li236  1  0.47153294  0.57618919  0.54289833  1
  Li  Li237  1  0.36793836  0.42912742  0.55556080  1
  Li  Li238  1  0.57394830  0.47287068  0.61303369  1
  Li  Li239  1  0.39386634  0.61244641  0.64589323  1
  Li  Li240  1  0.48137638  0.56293586  0.68363038  1
  Li  Li241  1  0.45913605  0.65095683  0.71202626  1
  Li  Li242  1  0.51842839  0.56203314  0.74225655  1
  Li  Li243  1  0.43219420  0.42586730  0.41124380  1
  Li  Li244  1  0.35239333  0.67546720  0.44772859  1
  Li  Li245  1  0.37013766  0.68233020  0.48317122  1
  Li  Li246  1  0.52584205  0.75544230  0.54096746  1
  Li  Li247  1  0.46168347  0.55791103  0.57893445  1
  Li  Li248  1  0.59316792  0.68893431  0.60023528  1
  Li  Li249  1  0.46691574  0.75951152  0.63429732  1
  Li  Li250  1  0.57973431  0.68596962  0.66213214  1
  Li  Li251  1  0.34822118  0.78128894  0.70547560  1
  Li  Li252  1  0.51383256  0.75286595  0.73953381  1
  Li  Li253  1  0.51488539  0.60355935  0.38957183  1
  Li  Li254  1  0.25808747  0.81114617  0.46677677  1
  Li  Li255  1  0.40923614  0.85943064  0.48083759  1
  Li  Li256  1  0.47442152  0.85536055  0.51301483  1
  Li  Li257  1  0.43753971  0.72355797  0.57086226  1
  Li  Li258  1  0.56151234  0.87294526  0.61174075  1
  Li  Li259  1  0.37730411  0.90243866  0.62513756  1
  Li  Li260  1  0.49769247  0.85174408  0.66136540  1
  Li  Li261  1  0.39800782  0.91810141  0.68575820  1
  Li  Li262  1  0.47409237  0.88133142  0.71953483  1
  Li  Li263  1  0.39956618  0.74591663  0.41504892  1
  Li  Li264  1  0.49598108  -0.03253777  0.45782615  1
  Li  Li265  1  0.62761549  -0.07251919  0.48198482  1
  Li  Li266  1  0.60216934  0.00889388  0.51786042  1
  Li  Li267  1  0.60100575  -0.09163128  0.54782364  1
  Li  Li268  1  0.68351350  0.01854513  0.61030172  1
  Li  Li269  1  0.54825623  0.13761807  0.64566744  1
  Li  Li270  1  0.69851608  0.04419879  0.67353398  1
  Li  Li271  1  0.58286579  0.07266722  0.73039011  1
  Li  Li272  1  0.79447283  -0.01927800  0.75979687  1
  Li  Li273  1  0.60349766  0.87384331  0.39182899  1
  Li  Li274  1  0.48713471  0.14340818  0.46583388  1
  Li  Li275  1  0.61682005  0.14022950  0.49206804  1
  Li  Li276  1  0.61770683  0.19721712  0.52851700  1
  Li  Li277  1  0.58382390  0.07919933  0.55331084  1
  Li  Li278  1  0.63295983  0.19329887  0.61667825  1
  Li  Li279  1  0.57318096  0.32470924  0.63695040  1
  Li  Li280  1  0.61156584  0.21622504  0.67006234  1
  Li  Li281  1  0.46274453  0.22315056  0.72430550  1
  Li  Li282  1  0.61113392  0.25192326  0.74171177  1
  Li  Li283  1  0.55911801  0.10314254  0.43450246  1
  Li  Li284  1  0.47063197  0.32761362  0.47174428  1
  Li  Li285  1  0.48757717  0.30406537  0.50614039  1
  Li  Li286  1  0.71432497  0.34539597  0.53081847  1
  Li  Li287  1  0.58709001  0.24419963  0.56330962  1
  Li  Li288  1  0.66853828  0.33187634  0.59590579  1
  Li  Li289  1  0.53324857  0.50504866  0.65137708  1
  Li  Li290  1  0.55456325  0.38735564  0.67483417  1
  Li  Li291  1  0.58831976  0.31052753  0.70469911  1
  Li  Li292  1  0.65338898  0.42810765  0.73144122  1
  Li  Li293  1  0.60232291  0.29240229  0.40917779  1
  Li  Li294  1  0.45727833  0.47167614  0.44849275  1
  Li  Li295  1  0.59594979  0.47288332  0.51216565  1
  Li  Li296  1  0.63554748  0.49917532  0.54886702  1
  Li  Li297  1  0.52570812  0.39921528  0.57365012  1
  Li  Li298  1  0.65558695  0.52256886  0.58471841  1
  Li  Li299  1  0.59992443  0.62063956  0.63072120  1
  Li  Li300  1  0.65874713  0.53680435  0.67872700  1
  Li  Li301  1  0.62576052  0.60890930  0.71408760  1
  Li  Li302  1  0.67373875  0.71093432  0.75093195  1
  Li  Li303  1  0.61331872  0.39451176  0.43719140  1
  Li  Li304  1  0.52621151  0.62148081  0.46324755  1
  Li  Li305  1  0.48510029  0.65821332  0.51028741  1
  Li  Li306  1  0.64543999  0.64086618  0.52594168  1
  Li  Li307  1  0.61760717  0.66104455  0.56412799  1
  Li  Li308  1  0.77481143  0.67485514  0.58679684  1
  Li  Li309  1  0.64330950  0.79286863  0.63807819  1
  Li  Li310  1  0.74701337  0.59954828  0.65117790  1
  Li  Li311  1  0.53977603  0.77037560  0.69211538  1
  Li  Li312  1  0.67260711  0.77889922  0.71700251  1
  Li  Li313  1  0.51061755  0.59703313  0.42695066  1
  Li  Li314  1  0.48936870  0.79195401  0.44989948  1
  Li  Li315  1  0.56196897  0.76169805  0.48625054  1
  Li  Li316  1  0.66622276  0.82667063  0.51826690  1
  Li  Li317  1  0.59647749  0.82508012  0.57742842  1
  Li  Li318  1  0.72909227  0.84365324  0.59847495  1
  Li  Li319  1  0.60279538  0.96492295  0.64234652  1
  Li  Li320  1  0.66728435  0.86482853  0.67046567  1
  Li  Li321  1  0.60139676  0.94361977  0.69973769  1
  Li  Li322  1  0.65133100  0.91795829  0.73796640  1
  Li  Li323  1  0.76208586  0.78120186  0.39698428  1
  Li  Li324  1  0.65542851  0.90500776  0.44446651  1
  Li  Li325  1  0.77337932  -0.02817827  0.50073387  1
  Li  Li326  1  0.76027576  0.01821257  0.53732603  1
  Li  Li327  1  0.74414042  -0.03003588  0.57092239  1
  Li  Li328  1  0.86259722  -0.02173606  0.59888285  1
  Li  Li329  1  0.74210603  0.08609160  0.64072672  1
  Li  Li330  1  0.83359520  -0.04930989  0.66166881  1
  Li  Li331  1  0.75759354  0.01737091  0.71277689  1
  Li  Li332  1  0.84223052  0.13309787  0.78923831  1
  Li  Li333  1  0.80870595  0.86865770  0.42654891  1
  Li  Li334  1  0.67201168  0.07093799  0.46005499  1
  Li  Li335  1  0.81674357  0.10736100  0.47940470  1
  Li  Li336  1  0.78141729  0.15897259  0.51256985  1
  Li  Li337  1  0.70107916  0.14384449  0.58342915  1
  Li  Li338  1  0.81988043  0.15830110  0.61024007  1
  Li  Li339  1  0.75613553  0.25379580  0.64721888  1
  Li  Li340  1  0.79525438  0.17216890  0.68598047  1
  Li  Li341  1  0.62335010  0.14022764  0.70198012  1
  Li  Li342  1  0.90147886  0.29712366  0.77446210  1
  Li  Li343  1  0.81121521  0.15659044  0.40216450  1
  Li  Li344  1  0.65080954  0.26189085  0.46366691  1
  Li  Li345  1  0.66806525  0.31701226  0.49736829  1
  Li  Li346  1  0.88921774  0.31330037  0.52079496  1
  Li  Li347  1  0.77384963  0.19945291  0.55167078  1
  Li  Li348  1  0.84594654  0.27905378  0.58170411  1
  Li  Li349  1  0.70065870  0.42782926  0.64816983  1
  Li  Li350  1  0.72812739  0.33187009  0.67910320  1
  Li  Li351  1  0.75155466  0.26566180  0.71633713  1
  Li  Li352  1  0.84926983  0.42424964  0.72589742  1
  Li  Li353  1  0.70862484  0.19698179  0.43259973  1
  Li  Li354  1  0.62249259  0.45275027  0.47146416  1
  Li  Li355  1  0.78751427  0.45412786  0.49148118  1
  Li  Li356  1  0.78368766  0.50316160  0.52378335  1
  Li  Li357  1  0.71351023  0.37025023  0.56500713  1
  Li  Li358  1  0.83497725  0.47037263  0.58518884  1
  Li  Li359  1  0.75727510  0.53108130  0.61544493  1
  Li  Li360  1  0.82948065  0.47015844  0.67391306  1
  Li  Li361  1  0.72613772  0.44768077  0.70228584  1
  Li  Li362  1  0.79325982  0.58848939  0.71686230  1
  Li  Li363  1  0.73838093  0.28803065  0.38690257  1
  Li  Li364  1  0.67897284  0.56461592  0.44313692  1
  Li  Li365  1  0.66159333  0.60867848  0.49044805  1
  Li  Li366  1  0.81079085  0.69631089  0.52752275  1
  Li  Li367  1  0.79389723  0.58866040  0.55657078  1
  Li  Li368  1  0.92536000  0.63225691  0.60769091  1
  Li  Li369  1  0.76545302  0.70937981  0.62169197  1
  Li  Li370  1  0.87990312  0.63500010  0.67744239  1
  Li  Li371  1  0.72045939  0.69945719  0.68669893  1
  Li  Li372  1  0.81228296  0.84811285  0.73417040  1
  Li  Li373  1  0.72541793  0.50300203  0.41040805  1
  Li  Li374  1  0.62141429  0.75019920  0.42317701  1
  Li  Li375  1  0.76153651  0.78102672  0.49081714  1
  Li  Li376  1  0.85972076  0.86031632  0.52608024  1
  Li  Li377  1  0.75095276  0.79319974  0.55426485  1
  Li  Li378  1  0.88954719  0.82237091  0.57745263  1
  Li  Li379  1  0.77973085  0.90120527  0.63050923  1
  Li  Li380  1  0.79678914  0.76615844  0.65599579  1
  Li  Li381  1  0.78810081  0.87387019  0.69512894  1
  Li  Li382  1  0.96627805  0.87054275  0.71435503  1
  Li  Li383  1  0.81597853  0.68011166  0.42894083  1
  Li  Li384  1  0.80971719  0.91884442  0.46612843  1
  Li  Li385  1  0.97924612  -0.00116053  0.47568316  1
  Li  Li386  1  0.94171679  0.00154840  0.51350761  1
  Li  Li387  1  0.92435250  -0.04832301  0.55260233  1
  Li  Li388  1  0.03816532  -0.04207045  0.58327414  1
  Li  Li389  1  0.91779132  0.02422347  0.63190581  1
  Li  Li390  1  0.03013811  -0.01527859  0.66365614  1
  Li  Li391  1  0.90811192  0.01219114  0.69103388  1
  Li  Li392  1  0.04748759  0.11985096  0.73518181  1
  Li  Li393  1  1.00486551  0.88591805  0.38847537  1
  Li  Li394  1  0.83335944  0.04589422  0.44105453  1
  Li  Li395  1  0.97616869  0.15622484  0.49943292  1
  Li  Li396  1  0.92929934  0.13663489  0.53600339  1
  Li  Li397  1  0.90163382  0.10337049  0.57353605  1
  Li  Li398  1  -0.00261107  0.10341394  0.60605259  1
  Li  Li399  1  0.94231683  0.22260175  0.63229731  1
  Li  Li400  1  -0.09656245  0.12845232  0.65953470  1
  Li  Li401  1  0.90957753  0.16042123  0.71430986  1
  Li  Li402  1  -0.04077530  0.28366236  0.73847133  1
  Li  Li403  1  0.69163353  0.01720970  0.41791881  1
  Li  Li404  1  0.83855028  0.22667566  0.45474305  1
  Li  Li405  1  0.84668312  0.28919846  0.48593029  1
  Li  Li406  1  0.03789439  0.40230099  0.53328021  1
  Li  Li407  1  1.00261931  0.26261169  0.55880920  1
  Li  Li408  1  -0.00694644  0.28790354  0.59959504  1
  Li  Li409  1  0.80511911  0.34289804  0.61733453  1
  Li  Li410  1  -0.09744183  0.32024241  0.66270035  1
  Li  Li411  1  0.88972024  0.33416534  0.69851946  1
  Li  Li412  1  0.05241852  0.41202114  0.72098844  1
  Li  Li413  1  0.92357350  0.19627694  0.42769907  1
  Li  Li414  1  0.78269782  0.39993260  0.45445954  1
  Li  Li415  1  0.95772981  0.48317738  0.50499306  1
  Li  Li416  1  0.94121638  0.56970633  0.53521935  1
  Li  Li417  1  0.87534516  0.41181353  0.55171903  1
  Li  Li418  1  -0.03770811  0.46029747  0.60881568  1
  Li  Li419  1  0.87649810  0.46240554  0.63945669  1
  Li  Li420  1  -0.00030277  0.49558109  0.66232874  1
  Li  Li421  1  0.94398460  0.51630432  0.69829341  1
  Li  Li422  1  -0.03092228  0.57916405  0.72729027  1
  Li  Li423  1  0.79468443  0.34727192  0.42078390  1
  Li  Li424  1  0.81408388  0.58345394  0.46541770  1
  Li  Li425  1  0.84593099  0.63054371  0.49879548  1
  Li  Li426  1  -0.00724967  0.70744853  0.51423935  1
  Li  Li427  1  0.95698336  0.61352404  0.57453244  1
  Li  Li428  1  0.10505526  0.59197629  0.59926551  1
  Li  Li429  1  0.92171062  0.64783620  0.64124831  1
  Li  Li430  1  0.04502046  0.68377706  0.66539981  1
  Li  Li431  1  0.86984263  0.72982914  0.70950031  1
  Li  Li432  1  0.05153697  0.73600301  0.73665196  1
  Li  Li433  1  0.89695167  0.51077930  0.43425456  1
  Li  Li434  1  0.68379640  0.73925791  0.45834453  1
  Li  Li435  1  0.94423230  0.83696856  0.49337996  1
  Li  Li436  1  0.06725070  0.87023327  0.52317300  1
  Li  Li437  1  0.96405091  0.73874210  0.54910228  1
  Li  Li438  1  0.05147984  0.77256642  0.59123899  1
  Li  Li439  1  0.90834782  0.80927319  0.61219670  1
  Li  Li440  1  -0.04376957  0.83824320  0.64365825  1
  Li  Li441  1  0.92694261  0.81251154  0.67810636  1
  Li  Li442  1  0.10394645  0.94859037  0.72947975  1
  Li  Li443  1  -0.01376600  0.75319514  0.41491910  1
  Li  Li444  1  0.01672930  0.07090691  0.79514934  1
  Li  Li445  1  0.07665858  0.06541808  0.84864024  1
  Li  Li446  1  0.09249719  0.17884817  0.87837428  1
  Li  Li447  1  0.14126745  0.13131052  0.94731215  1
  Li  Li448  1  0.20805317  0.14292545  0.98772313  1
  Li  Li449  1  0.02304087  0.01013222  0.76432120  1
  Li  Li450  1  -0.01792476  0.24231671  0.80460870  1
  Li  Li451  1  0.04151869  0.24733163  0.83796269  1
  Li  Li452  1  0.20201317  0.35953211  0.87392045  1
  Li  Li453  1  0.10731101  0.29802759  0.90460064  1
  Li  Li454  1  0.16660781  0.30834063  0.96637314  1
  Li  Li455  1  0.04888795  0.19389051  0.77055159  1
  Li  Li456  1  -0.02214663  0.44306058  0.79009064  1
  Li  Li457  1  0.15692022  0.40729368  0.84100714  1
  Li  Li458  1  0.17124194  0.50089129  0.89905610  1
  Li  Li459  1  0.17249562  0.42966548  0.93362875  1
  Li  Li460  1  0.20324874  0.49397085  0.98370974  1
  Li  Li461  1  0.09214093  0.37238462  0.76441966  1
  Li  Li462  1  0.00960440  0.59449724  0.80987676  1
  Li  Li463  1  0.10183679  0.58898705  0.83873201  1
  Li  Li464  1  0.23003383  0.67910942  0.89273435  1
  Li  Li465  1  0.06487544  0.59165004  0.92673336  1
  Li  Li466  1  0.19495009  0.61465485  0.95442348  1
  Li  Li467  1  0.09629582  0.55108152  0.74980824  1
  Li  Li468  1  -0.06733574  0.75611917  0.79713096  1
  Li  Li469  1  0.03215587  0.76494684  0.82984129  1
  Li  Li470  1  0.13529801  0.96907373  0.90928617  1
  Li  Li471  1  0.19349240  0.76700363  0.92578797  1
  Li  Li472  1  0.22228905  0.72832589  0.98623847  1
  Li  Li473  1  0.04822299  0.72956849  0.77093458  1
  Li  Li474  1  0.04838605  0.95338780  0.82043339  1
  Li  Li475  1  0.16233286  0.87763578  0.84928888  1
  Li  Li476  1  0.20800260  1.01452120  0.87556611  1
  Li  Li477  1  0.06379196  0.95613049  0.94137111  1
  Li  Li478  1  0.17828048  0.95331188  0.97030641  1
  Li  Li479  1  0.07335103  0.88039059  0.78841308  1
  Li  Li480  1  0.19613175  0.01746648  0.79084995  1
  Li  Li481  1  0.35875459  0.13548663  0.81288361  1
  Li  Li482  1  0.29966172  0.18999313  0.88083038  1
  Li  Li483  1  0.23337875  0.14399209  0.91322782  1
  Li  Li484  1  0.33884863  0.11537399  0.96103967  1
  Li  Li485  1  0.22079923  0.10423415  0.72027923  1
  Li  Li486  1  0.14933562  0.13933185  0.81654599  1
  Li  Li487  1  0.21045473  0.21232001  0.85013127  1
  Li  Li488  1  0.40343097  0.35159666  0.87491417  1
  Li  Li489  1  0.30215070  0.26955548  0.93876620  1
  Li  Li490  1  0.38346610  0.30523856  0.97935683  1
  Li  Li491  1  0.16436051  0.24288055  0.74307501  1
  Li  Li492  1  0.11769992  0.36169098  0.80447894  1
  Li  Li493  1  0.20125613  0.51555326  0.81389484  1
  Li  Li494  1  0.27083097  0.53414737  0.86362808  1
  Li  Li495  1  0.29682673  0.35860880  0.90651611  1
  Li  Li496  1  0.34148136  0.45009316  0.95385217  1
  Li  Li497  1  0.25291842  0.40583367  0.77942709  1
  Li  Li498  1  0.12835171  0.54733233  0.78112308  1
  Li  Li499  1  0.24905206  0.69771834  0.82936807  1
  Li  Li500  1  0.31006576  0.86605312  0.90431769  1
  Li  Li501  1  0.30811557  0.58368993  0.92387711  1
  Li  Li502  1  0.41922273  0.53692452  0.98746118  1
  Li  Li503  1  0.29856344  0.52495064  0.75468164  1
  Li  Li504  1  0.14353537  0.70303651  0.80129423  1
  Li  Li505  1  0.18942758  0.70930557  0.86054552  1
  Li  Li506  1  0.32024788  0.85380044  0.87171950  1
  Li  Li507  1  0.40528323  0.64069835  0.95752108  1
  Li  Li508  1  0.29356696  0.81422018  0.95722866  1
  Li  Li509  1  0.21247113  0.68469003  0.75857160  1
  Li  Li510  1  0.20890778  0.87049947  0.81465657  1
  Li  Li511  1  0.26639095  1.02506976  0.83631137  1
  Li  Li512  1  0.38681025  1.03626918  0.89771003  1
  Li  Li513  1  0.28541286  0.97145859  0.93518350  1
  Li  Li514  1  0.35991544  0.96112050  0.98750190  1
  Li  Li515  1  0.29822541  0.94513611  0.72701824  1
  Li  Li516  1  0.36196773  0.11640886  0.77903664  1
  Li  Li517  1  0.38942097  0.19719530  0.84717866  1
  Li  Li518  1  0.51046996  0.18106786  0.87524147  1
  Li  Li519  1  0.43738683  0.10443773  0.93094593  1
  Li  Li520  1  0.52449468  0.11226525  0.97842881  1
  Li  Li521  1  0.51759308  0.00230590  0.78771756  1
  Li  Li522  1  0.26322261  0.29815935  0.81968346  1
  Li  Li523  1  0.35408476  0.39234747  0.84455152  1
  Li  Li524  1  0.56351077  0.37541347  0.89258102  1
  Li  Li525  1  0.44091354  0.23348097  0.90671437  1
  Li  Li526  1  0.50499895  0.27167065  0.94926569  1
  Li  Li527  1  0.37941864  0.28555692  0.79146960  1
  Li  Li528  1  0.36885995  0.44337680  0.80639123  1
  Li  Li529  1  0.36702852  0.56042542  0.83152600  1
  Li  Li530  1  0.49204861  0.52481760  0.86302023  1
  Li  Li531  1  0.46192091  0.41453155  0.92406450  1
  Li  Li532  1  0.55436803  0.46331202  0.95892975  1
  Li  Li533  1  0.45513365  0.38343262  0.73963960  1
  Li  Li534  1  0.30404622  0.60771929  0.78942153  1
  Li  Li535  1  0.38667043  0.69195603  0.86198437  1
  Li  Li536  1  0.43352900  0.70509396  0.89743426  1
  Li  Li537  1  0.39411744  0.52006729  0.89353982  1
  Li  Li538  1  0.51870034  0.59973148  0.92936971  1
  Li  Li539  1  0.43819441  0.46368505  0.77279940  1
  Li  Li540  1  0.26009557  0.80519537  0.78297292  1
  Li  Li541  1  0.36173017  0.84832539  0.83701707  1
  Li  Li542  1  0.51153018  0.88201994  0.88780269  1
  Li  Li543  1  0.41138916  0.77248961  0.93038361  1
  Li  Li544  1  0.46098266  0.77632678  0.98114921  1
  Li  Li545  1  0.42469271  0.66353937  0.76672648  1
  Li  Li546  1  0.36517933  0.93993085  0.80234909  1
  Li  Li547  1  0.47442410  1.00724752  0.82753338  1
  Li  Li548  1  0.40913583  1.02292485  0.86222910  1
  Li  Li549  1  0.52188260  0.92620252  0.92227297  1
  Li  Li550  1  0.46884760  0.94378096  0.95581064  1
  Li  Li551  1  0.44787443  0.83314219  0.77642963  1
  Li  Li552  1  0.54516839  0.16827291  0.79900494  1
  Li  Li553  1  0.56083268  0.15341233  0.83745650  1
  Li  Li554  1  0.69726861  0.22758813  0.88629197  1
  Li  Li555  1  0.58798082  0.07902511  0.90240600  1
  Li  Li556  1  0.61699907  0.10327147  0.94566040  1
  Li  Li557  1  0.48090585  -0.04467159  0.75008606  1
  Li  Li558  1  0.46852203  0.30634675  0.82266116  1
  Li  Li559  1  0.58170177  0.32844903  0.85518925  1
  Li  Li560  1  0.76887239  0.40461958  0.89897157  1
  Li  Li561  1  0.62725174  0.25583007  0.91974683  1
  Li  Li562  1  0.63329008  0.30473812  0.98033885  1
  Li  Li563  1  0.67755712  0.11073198  0.76878918  1
  Li  Li564  1  0.54969748  0.37425752  0.79560948  1
  Li  Li565  1  0.55660744  0.48528008  0.83122734  1
  Li  Li566  1  0.68018866  0.48178485  0.86944402  1
  Li  Li567  1  0.67219051  0.43667300  0.92966532  1
  Li  Li568  1  0.70878901  0.61299435  0.94248260  1
  Li  Li569  1  0.62196179  0.41049998  0.76305951  1
  Li  Li570  1  0.49420317  0.57316749  0.80115039  1
  Li  Li571  1  0.51145513  0.69074197  0.83449210  1
  Li  Li572  1  0.57980244  0.69540164  0.87231453  1
  Li  Li573  1  0.61639051  0.55866780  0.89935375  1
  Li  Li574  1  0.61621590  0.63047326  0.97606307  1
  Li  Li575  1  0.60409126  0.57551652  0.77285086  1
  Li  Li576  1  0.39359799  0.74190107  0.80672705  1
  Li  Li577  1  0.52507787  0.86447431  0.85220555  1
  Li  Li578  1  0.69675474  0.84774264  0.87245793  1
  Li  Li579  1  0.62904467  0.74481112  0.91017595  1
  Li  Li580  1  0.59292380  0.77532004  0.94849023  1
  Li  Li581  1  0.58314876  0.73112910  0.78717279  1
  Li  Li582  1  0.55265426  0.85854513  0.81151935  1
  Li  Li583  1  0.67004896  0.99145753  0.83010036  1
  Li  Li584  1  0.61323027  1.02237359  0.86672033  1
  Li  Li585  1  0.70908805  0.94240905  0.94089586  1
  Li  Li586  1  0.64786640  0.91470546  0.97594369  1
  Li  Li587  1  0.63276806  0.88243308  0.76951040  1
  Li  Li588  1  0.72081177  0.15819066  0.81393058  1
  Li  Li589  1  0.72410751  0.16327681  0.85238581  1
  Li  Li590  1  0.90384349  0.23771579  0.89030958  1
  Li  Li591  1  0.76590969  0.10999706  0.91932967  1
  Li  Li592  1  0.76722665  0.10003906  0.97181372  1
  Li  Li593  1  0.91204588  0.00692970  0.73259835  1
  Li  Li594  1  0.69971143  0.27242256  0.78312318  1
  Li  Li595  1  0.65751893  0.31694400  0.82315166  1
  Li  Li596  1  0.80291103  0.33581899  0.86227191  1
  Li  Li597  1  0.85304467  0.27897820  0.92142806  1
  Li  Li598  1  0.73987580  0.27936832  0.95016626  1
  Li  Li599  1  0.75665933  0.12959926  0.73729971  1
  Li  Li600  1  0.67623816  0.48265683  0.80117948  1
  Li  Li601  1  0.76078145  0.45634386  0.83628196  1
  Li  Li602  1  0.87718389  0.51084378  0.87558381  1
  Li  Li603  1  0.87825766  0.44784732  0.93699537  1
  Li  Li604  1  0.78811968  0.48144721  0.96886730  1
  Li  Li605  1  0.77797434  0.31060044  0.75073533  1
  Li  Li606  1  0.66250971  0.64553576  0.81501158  1
  Li  Li607  1  0.70442592  0.62627032  0.84836688  1
  Li  Li608  1  0.77695884  0.67119281  0.88223952  1
  Li  Li609  1  0.82717568  0.59229297  0.91307347  1
  Li  Li610  1  0.91566979  0.64313394  0.94757134  1
  Li  Li611  1  0.75437757  0.54209405  0.74920511  1
  Li  Li612  1  0.73639740  0.81675548  0.80135078  1
  Li  Li613  1  0.68425901  0.80748543  0.83646241  1
  Li  Li614  1  0.88698507  0.83927015  0.88836525  1
  Li  Li615  1  0.80301261  0.78024789  0.92842940  1
  Li  Li616  1  0.79743517  0.74920951  0.96967894  1
  Li  Li617  1  0.76258922  0.64677144  0.78424070  1
  Li  Li618  1  0.70472313  0.99465206  0.79645689  1
  Li  Li619  1  0.80750867  0.97649156  0.85460006  1
  Li  Li620  1  0.79810722  1.05430945  0.88559709  1
  Li  Li621  1  0.70768131  0.92008498  0.90478297  1
  Li  Li622  1  0.88627070  0.91467171  0.95592748  1
  Li  Li623  1  0.81333298  0.80112166  0.76997070  1
  Li  Li624  1  0.89842683  0.07964865  0.82484527  1
  Li  Li625  1  0.91269246  0.14667092  0.85959686  1
  Li  Li626  1  0.01253197  0.12723526  0.91406505  1
  Li  Li627  1  0.90709715  0.11788596  0.94464764  1
  Li  Li628  1  0.00196624  0.07460333  0.97561661  1
  Li  Li629  1  0.88604623  -0.05648643  0.78858267  1
  Li  Li630  1  0.85156980  0.26543732  0.83290431  1
  Li  Li631  1  0.82040222  0.34594778  0.80506887  1
  Li  Li632  1  0.00267716  0.35381480  0.86586528  1
  Li  Li633  1  1.03013608  0.29277567  0.93750259  1
  Li  Li634  1  -0.07615553  0.28570720  0.96891552  1
  Li  Li635  1  0.89263918  0.13726797  0.75764767  1
  Li  Li636  1  0.79169262  0.45348461  0.77657691  1
  Li  Li637  1  0.97178850  0.42521960  0.82819745  1
  Li  Li638  1  0.07440097  0.53228224  0.87035692  1
  Li  Li639  1  0.97613924  0.43695298  0.90455174  1
  Li  Li640  1  0.03064940  0.47095089  0.95981053  1
  Li  Li641  1  0.93238460  0.45475819  0.75385199  1
  Li  Li642  1  0.83925079  0.54034239  0.80814851  1
  Li  Li643  1  0.90643458  0.57901779  0.84532193  1
  Li  Li644  1  0.00181022  0.71497655  0.86370774  1
  Li  Li645  1  1.00049927  0.65087454  0.89557048  1
  Li  Li646  1  0.00722012  0.63431613  0.98114737  1
  Li  Li647  1  0.93167129  0.60039803  0.77344421  1
  Li  Li648  1  0.84028744  0.70094992  0.82374652  1
  Li  Li649  1  0.83906051  0.77299399  0.85368439  1
  Li  Li650  1  0.10692915  0.83143912  0.88549692  1
  Li  Li651  1  0.99792958  0.79095638  0.92013946  1
  Li  Li652  1  0.07072467  0.77367205  0.95508826  1
  Li  Li653  1  0.86815353  0.68587295  0.74538799  1
  Li  Li654  1  0.85951026  0.89201377  0.82303086  1
  Li  Li655  1  0.97863040  0.90460920  0.85446840  1
  Li  Li656  1  -0.00726962  1.00821828  0.88299711  1
  Li  Li657  1  0.90130067  0.96277042  0.91779146  1
  Li  Li658  1  0.00277870  0.85480989  0.98551334  1
  Li  Li659  1  0.95857224  0.86147418  0.75380851  1
  La  La660  1  -0.00190523  0.13883063  0.16748721  1
  La  La661  1  0.47316482  0.37313024  0.16967621  1
  La  La662  1  0.26705738  0.99369090  0.18548430  1
  La  La663  1  0.77518433  0.48426522  0.18737310  1
  La  La664  1  0.87611811  0.72127846  0.20544192  1
  La  La665  1  0.36896451  0.75871387  0.20644285  1
  La  La666  1  0.62155547  0.22145531  0.20136668  1
  La  La667  1  0.13245640  0.24496573  0.20280789  1
  La  La668  1  0.75997369  0.98994080  0.22242927  1
  La  La669  1  0.25205335  0.48185954  0.22739340  1
  La  La670  1  0.50770398  0.11515664  0.24198697  1
  La  La671  1  0.01904851  0.36275470  0.24367840  1
  La  La672  1  0.51851677  0.63455521  0.24264878  1
  La  La673  1  1.00612394  0.87651424  0.24169763  1
  La  La674  1  0.75645909  0.50078131  0.25705552  1
  La  La675  1  0.24650749  0.00198514  0.26270667  1
  La  La676  1  0.38297710  0.25627047  0.27988210  1
  La  La677  1  0.87916679  0.23151974  0.27984145  1
  La  La678  1  0.11938244  0.76395685  0.28338419  1
  La  La679  1  0.62776914  0.76517289  0.28142762  1
  La  La680  1  0.25239575  0.51107569  0.30005636  1
  La  La681  1  0.73971287  0.00213557  0.30119302  1
  La  La682  1  0.97305030  0.62210604  0.31886278  1
  La  La683  1  0.49112702  0.86441337  0.32018913  1
  La  La684  1  -0.00144603  0.13527849  0.31941895  1
  La  La685  1  0.48747661  0.36938301  0.32030883  1
  La  La686  1  0.24354869  0.99466380  0.33582783  1
  La  La687  1  0.74749088  0.48077404  0.33872123  1
  La  La688  1  0.87927017  0.74742838  0.35967756  1
  La  La689  1  0.38186257  0.73779662  0.35951872  1
  La  La690  1  0.61068586  0.22675832  0.35702730  1
  La  La691  1  0.11223152  0.27462245  0.35803597  1
  La  La692  1  0.76918258  1.00203794  0.37621832  1
  La  La693  1  0.26925841  0.49638534  0.37851884  1
  La  La694  1  0.48208652  0.13016293  0.39444520  1
  La  La695  1  0.97339182  0.36310570  0.39661240  1
  Zr  Zr696  1  0.99125229  0.98957956  0.20207750  1
  Zr  Zr697  1  0.51091473  0.98782605  0.20206814  1
  Zr  Zr698  1  0.48443954  0.51519904  0.20528218  1
  Zr  Zr699  1  0.01995025  0.48975406  0.20274939  1
  Zr  Zr700  1  0.75339899  0.23416108  0.24085128  1
  Zr  Zr701  1  0.75579418  0.75266020  0.24379945  1
  Zr  Zr702  1  0.25555715  0.23574261  0.24261544  1
  Zr  Zr703  1  0.24229220  0.76030179  0.24429776  1
  Zr  Zr704  1  0.50319036  0.51128120  0.28244807  1
  Zr  Zr705  1  0.98218692  0.50057811  0.28088115  1
  Zr  Zr706  1  1.00409675  0.00156688  0.28288747  1
  Zr  Zr707  1  0.49005898  -0.00646059  0.28236707  1
  Zr  Zr708  1  0.24122109  0.73627651  0.32266494  1
  Zr  Zr709  1  0.24223726  0.26447488  0.31971929  1
  Zr  Zr710  1  0.74620680  0.76832807  0.32248673  1
  Zr  Zr711  1  0.75075535  0.24457697  0.32059487  1
  Zr  Zr712  1  0.01936305  0.99335993  0.35990464  1
  Zr  Zr713  1  0.48853446  0.98761392  0.35947523  1
  Zr  Zr714  1  0.51237003  0.51250151  0.35875137  1
  Zr  Zr715  1  -0.01758730  0.50899489  0.36161570  1
  O  O716  1  0.21111827  0.84240966  0.18744476  1
  O  O717  1  0.28486135  0.16124534  0.19365780  1
  O  O718  1  0.72812316  0.64900265  0.19227531  1
  O  O719  1  0.76018960  0.33962991  0.19942789  1
  O  O720  1  0.56288009  0.85507190  0.19860054  1
  O  O721  1  0.98352633  0.14457986  0.19850111  1
  O  O722  1  0.05907462  0.63203786  0.19931414  1
  O  O723  1  0.45178617  0.36929403  0.19983079  1
  O  O724  1  0.83657968  0.95536293  0.19565382  1
  O  O725  1  0.64277141  0.05181037  0.19275713  1
  O  O726  1  0.16034249  0.43975499  0.19714296  1
  O  O727  1  0.33250066  0.56561392  0.19955249  1
  O  O728  1  0.36771207  0.94095726  0.20893963  1
  O  O729  1  0.13877059  0.01309788  0.20594285  1
  O  O730  1  0.62814707  0.48690566  0.20790790  1
  O  O731  1  0.87501096  0.53841563  0.21163460  1
  O  O732  1  0.47951918  0.13365973  0.21300338  1
  O  O733  1  0.01388402  0.84811593  0.21085341  1
  O  O734  1  0.98754186  0.35234763  0.21436134  1
  O  O735  1  0.51078383  0.66095037  0.21250358  1
  O  O736  1  0.78246730  0.16127982  0.21717767  1
  O  O737  1  0.73628704  0.80040637  0.21833525  1
  O  O738  1  0.28612100  0.31101071  0.22016117  1
  O  O739  1  0.21428919  0.73761980  0.21856020  1
  O  O740  1  0.93791536  0.01470115  0.22737656  1
  O  O741  1  0.57530786  0.97146694  0.22835459  1
  O  O742  1  0.07749649  0.51973526  0.22968711  1
  O  O743  1  0.42888727  0.48615099  0.23037344  1
  O  O744  1  0.11736996  0.19479023  0.23338794  1
  O  O745  1  0.38878324  0.78738750  0.23718725  1
  O  O746  1  0.61248914  0.27308353  0.23120872  1
  O  O747  1  0.89840010  0.71451271  0.23523596  1
  O  O748  1  0.30046223  0.09258818  0.23694203  1
  O  O749  1  0.19397766  0.90400396  0.23809887  1
  O  O750  1  0.79107798  0.37862892  0.23759138  1
  O  O751  1  0.69035182  0.62002561  0.23844587  1
  O  O752  1  0.18684413  0.36597119  0.24902371  1
  O  O753  1  0.26052975  0.61289249  0.24691109  1
  O  O754  1  0.69754872  0.09668707  0.24912985  1
  O  O755  1  0.79827675  0.89745982  0.24872196  1
  O  O756  1  0.40788748  0.27781397  0.25038142  1
  O  O757  1  0.09204795  0.72795364  0.25356322  1
  O  O758  1  0.89889864  0.19786285  0.24935402  1
  O  O759  1  0.60572211  0.78817488  0.25082277  1
  O  O760  1  0.93612321  0.52526099  0.25574614  1
  O  O761  1  0.56479255  0.47305629  0.25910713  1
  O  O762  1  0.06324589  0.01291459  0.25891956  1
  O  O763  1  0.43544213  0.97777069  0.25794269  1
  O  O764  1  0.71113370  0.27737709  0.26557760  1
  O  O765  1  0.77784970  0.69461000  0.26819938  1
  O  O766  1  0.24600131  0.18030351  0.26842217  1
  O  O767  1  0.26305411  0.82498826  0.26910828  1
  O  O768  1  0.00128433  0.34961748  0.27576846  1
  O  O769  1  0.45387663  0.64871928  0.27210306  1
  O  O770  1  0.51807860  0.14156801  0.27728970  1
  O  O771  1  0.96464352  0.85560338  0.27843071  1
  O  O772  1  0.35776493  0.45545589  0.27473510  1
  O  O773  1  0.13362333  0.52205663  0.27746808  1
  O  O774  1  0.63728071  0.94216744  0.27910853  1
  O  O775  1  0.85624839  0.04131517  0.27809986  1
  O  O776  1  0.82476747  0.47487016  0.28465736  1
  O  O777  1  0.63294302  0.57416527  0.28994560  1
  O  O778  1  0.14191505  0.95190261  0.29150515  1
  O  O779  1  0.34837721  0.02600832  0.29099010  1
  O  O780  1  0.96801292  0.64544427  0.28928663  1
  O  O781  1  0.54022135  0.37293572  0.29216412  1
  O  O782  1  0.46655360  0.84259157  0.29011574  1
  O  O783  1  0.02576674  0.14660924  0.29009279  1
  O  O784  1  0.26057068  0.68454998  0.29777385  1
  O  O785  1  0.21060114  0.32428463  0.29576055  1
  O  O786  1  0.78040757  0.81667591  0.29750641  1
  O  O787  1  0.71132195  0.18123534  0.29725602  1
  O  O788  1  0.42378094  0.53806707  0.30575127  1
  O  O789  1  0.00006140  0.46759300  0.30684844  1
  O  O790  1  0.54466632  0.02542500  0.30775154  1
  O  O791  1  0.94445642  0.97939695  0.30861913  1
  O  O792  1  0.59819491  0.72902470  0.31697877  1
  O  O793  1  0.89508511  0.27517150  0.31162809  1
  O  O794  1  0.09718981  0.77098124  0.31566355  1
  O  O795  1  0.38849569  0.22815884  0.31292355  1
  O  O796  1  0.79038769  0.62034497  0.31701843  1
  O  O797  1  0.72274579  0.38942532  0.31503262  1
  O  O798  1  0.30486678  0.87257771  0.31870319  1
  O  O799  1  0.18546730  0.12369274  0.31828625  1
  O  O800  1  0.70092607  0.90553681  0.32583316  1
  O  O801  1  0.80679975  0.11613594  0.32854836  1
  O  O802  1  0.20103353  0.58804270  0.32765110  1
  O  O803  1  0.30422712  0.40044863  0.32767780  1
  O  O804  1  0.89404177  0.78807661  0.33072332  1
  O  O805  1  0.59413822  0.21827490  0.32701383  1
  O  O806  1  0.38962862  0.70645202  0.33098541  1
  O  O807  1  0.10126511  0.31227387  0.32874088  1
  O  O808  1  0.42161173  0.03175262  0.33633055  1
  O  O809  1  0.06932770  0.96003291  0.33563933  1
  O  O810  1  0.57437642  0.53967696  0.33433506  1
  O  O811  1  0.91917094  0.48755681  0.33862662  1
  O  O812  1  0.21431466  0.79293974  0.34770309  1
  O  O813  1  0.27089756  0.22081160  0.34609428  1
  O  O814  1  0.72269114  0.71284952  0.34814099  1
  O  O815  1  0.75147074  0.30498798  0.34645988  1
  O  O816  1  0.51840145  0.85296665  0.35085705  1
  O  O817  1  1.00167128  0.14243709  0.35329053  1
  O  O818  1  0.02831572  0.64808403  0.35566266  1
  O  O819  1  0.48746037  0.36454669  0.35190108  1
  O  O820  1  0.86609261  0.97980053  0.35299663  1
  O  O821  1  0.63119447  0.04692445  0.35486636  1
  O  O822  1  0.13377090  0.46869326  0.35853924  1
  O  O823  1  0.36608696  0.55490743  0.35686620  1
  O  O824  1  0.35180428  0.92292946  0.36717148  1
  O  O825  1  0.16679313  0.01832382  0.36515678  1
  O  O826  1  0.65948584  0.48432240  0.36650732  1
  O  O827  1  0.85107778  0.58033378  0.37015960  1
  O  O828  1  0.45577266  0.14320643  0.36515059  1
  O  O829  1  0.02513899  0.84741563  0.36560250  1
  O  O830  1  0.95907952  0.36049243  0.36750284  1
  O  O831  1  0.53819444  0.65296768  0.36576584  1
  O  O832  1  0.81343063  0.17933114  0.37697300  1
  O  O833  1  0.72529315  0.84672734  0.37771398  1
  O  O834  1  0.29734328  0.33771108  0.37453265  1
  O  O835  1  0.20923549  0.65837587  0.37715297  1
  O  O836  1  0.85038932  0.11019444  0.16838979  1
  O  O837  1  0.32104695  0.41387132  0.17016157  1
  O  O838  1  0.52702293  0.22147734  0.17661190  1
  O  O839  1  0.08709436  0.28051188  0.17445371  1
  O  O840  1  0.44146703  0.02567964  0.17973562  1
  O  O841  1  0.02182617  0.97917916  0.17576938  1
  O  O842  1  0.50796702  0.53001539  0.17851090  1
  O  O843  1  0.93952305  0.45994706  0.18158011  1
  O  O844  1  0.95749531  0.01207850  0.38461918  1
  O  O845  1  0.52002659  0.97904358  0.38579860  1
  O  O846  1  0.01592471  0.51908846  0.38959539  1
  O  O847  1  0.47093523  0.47451557  0.38428174  1
  O  O848  1  0.08696996  0.22118426  0.38718956  1
  O  O849  1  0.58899235  0.28146621  0.38588230  1
  O  O850  1  0.29692328  0.13039617  0.39003968  1
  O  O851  1  0.80159578  0.39829923  0.39674033  1
