# generated using pymatgen
data_Li155La8Zr5O32
_symmetry_space_group_name_H-M   'P 1'
_cell_length_a   13.63607008
_cell_length_b   14.10974392
_cell_length_c   75.10498083
_cell_angle_alpha   89.66627725
_cell_angle_beta   89.91039159
_cell_angle_gamma   89.98169062
_symmetry_Int_Tables_number   1
_chemical_formula_structural   Li155La8Zr5O32
_chemical_formula_sum   'Li620 La32 Zr20 O128'
_cell_volume   14450.04424802
_cell_formula_units_Z   4
loop_
 _symmetry_equiv_pos_site_id
 _symmetry_equiv_pos_as_xyz
  1  'x, y, z'
loop_
 _atom_site_type_symbol
 _atom_site_label
 _atom_site_symmetry_multiplicity
 _atom_site_fract_x
 _atom_site_fract_y
 _atom_site_fract_z
 _atom_site_occupancy
  Li  Li0  1  0.81603901  0.90179169  0.17680661  1
  Li  Li1  1  0.82024681  0.15267839  0.18762225  1
  Li  Li2  1  0.18571395  0.59975309  0.19404321  1
  Li  Li3  1  0.33350061  0.44386916  0.18442902  1
  Li  Li4  1  0.87513708  0.27885684  0.20762097  1
  Li  Li5  1  0.67276083  0.81329173  0.19411627  1
  Li  Li6  1  0.37270107  0.26971214  0.20174181  1
  Li  Li7  1  0.14358050  0.75739529  0.20565154  1
  Li  Li8  1  0.34228645  0.11938914  0.21496263  1
  Li  Li9  1  0.14130992  0.91990423  0.21362049  1
  Li  Li10  1  0.75963034  0.46863771  0.22294538  1
  Li  Li11  1  0.66279827  0.63564294  0.21171147  1
  Li  Li12  1  0.43064190  0.31627214  0.23008853  1
  Li  Li13  1  0.09539764  0.63482025  0.22539252  1
  Li  Li14  1  0.91996446  0.16071554  0.23042922  1
  Li  Li15  1  0.59251750  0.82425842  0.22266412  1
  Li  Li16  1  0.30675930  0.88775871  0.21934719  1
  Li  Li17  1  0.07895932  0.07226824  0.23320345  1
  Li  Li18  1  0.58484027  0.41804142  0.23369023  1
  Li  Li19  1  0.87756352  0.57480221  0.23181328  1
  Li  Li20  1  0.34516650  0.40740193  0.25970170  1
  Li  Li21  1  0.16762402  0.56010954  0.25555234  1
  Li  Li22  1  0.65880377  0.92156268  0.25252857  1
  Li  Li23  1  0.84103371  0.07760506  0.25776169  1
  Li  Li24  1  0.03967001  0.15451021  0.25906936  1
  Li  Li25  1  0.47424480  0.86352492  0.24550269  1
  Li  Li26  1  0.53849460  0.33328152  0.25992061  1
  Li  Li27  1  0.98171983  0.64906368  0.25308500  1
  Li  Li28  1  0.16996847  0.39472020  0.27450348  1
  Li  Li29  1  0.33194906  0.60001911  0.27427638  1
  Li  Li30  1  0.66964758  0.08462116  0.27336104  1
  Li  Li31  1  0.82990838  0.88919174  0.27161023  1
  Li  Li32  1  0.37804266  0.76336289  0.28195028  1
  Li  Li33  1  0.12858787  0.22953989  0.28499544  1
  Li  Li34  1  0.87382377  0.72634030  0.28213192  1
  Li  Li35  1  0.63022167  0.25073649  0.28453084  1
  Li  Li36  1  0.78593658  0.57027339  0.29819519  1
  Li  Li37  1  0.71473272  0.40570297  0.29719191  1
  Li  Li38  1  0.29020582  0.92132815  0.29816531  1
  Li  Li39  1  0.21157001  0.07398525  0.29613249  1
  Li  Li40  1  0.92811439  0.83226521  0.30475505  1
  Li  Li41  1  0.58673046  0.14024539  0.30645371  1
  Li  Li42  1  0.42905716  0.65123233  0.30433746  1
  Li  Li43  1  0.08139843  0.33990983  0.30607580  1
  Li  Li44  1  0.92193107  0.41438702  0.31458635  1
  Li  Li45  1  0.58907072  0.57710621  0.31445230  1
  Li  Li46  1  0.09048434  0.90886449  0.31421923  1
  Li  Li47  1  0.42104290  0.07021506  0.31668392  1
  Li  Li48  1  0.92881097  0.91512752  0.33414768  1
  Li  Li49  1  0.58671921  0.06296023  0.33601560  1
  Li  Li50  1  0.08091465  0.41994717  0.33461986  1
  Li  Li51  1  0.42878362  0.56823303  0.33454641  1
  Li  Li52  1  0.59095662  0.66152475  0.34241657  1
  Li  Li53  1  0.92053168  0.32600028  0.34237390  1
  Li  Li54  1  0.08244736  0.81196973  0.34277834  1
  Li  Li55  1  0.41663778  0.15446801  0.34471795  1
  Li  Li56  1  0.65510237  0.88557776  0.35528480  1
  Li  Li57  1  0.76957184  0.00124274  0.34489311  1
  Li  Li58  1  0.24582577  0.49826978  0.34524261  1
  Li  Li59  1  0.35357787  0.39439532  0.35570866  1
  Li  Li60  1  0.87921270  0.21171794  0.36414341  1
  Li  Li61  1  0.63311648  0.73712207  0.36854342  1
  Li  Li62  1  0.37075269  0.24495477  0.36726572  1
  Li  Li63  1  0.16044831  0.65667315  0.35471478  1
  Li  Li64  1  0.26937912  0.08922118  0.37526671  1
  Li  Li65  1  0.16391109  0.83580902  0.37169672  1
  Li  Li66  1  0.81525687  0.38630418  0.37267662  1
  Li  Li67  1  0.71988818  0.58187235  0.37328881  1
  Li  Li68  1  0.43776051  0.36044035  0.38608816  1
  Li  Li69  1  0.06757549  0.66581439  0.38172555  1
  Li  Li70  1  0.94332370  0.13040328  0.38800714  1
  Li  Li71  1  0.57878077  0.85574480  0.38672141  1
  Li  Li72  1  0.11152773  0.02552229  0.39849028  1
  Li  Li73  1  0.64094893  0.43649737  0.39395686  1
  Li  Li74  1  0.59521826  0.07306417  0.17278291  1
  Li  Li75  1  0.10682066  0.42748733  0.17194294  1
  Li  Li76  1  0.69885636  0.67270500  0.17480047  1
  Li  Li77  1  0.93288420  0.29314423  0.17858216  1
  Li  Li78  1  0.09182288  0.86068534  0.18390507  1
  Li  Li79  1  0.40108531  0.16077641  0.17757817  1
  Li  Li80  1  0.94445396  -0.00596323  0.45328560  1
  Li  Li81  1  0.13381308  0.02646078  0.52826814  1
  Li  Li82  1  0.20924712  0.03687834  0.49362713  1
  Li  Li83  1  0.03166844  -0.04379413  0.55383918  1
  Li  Li84  1  0.20884254  0.01009018  0.59987283  1
  Li  Li85  1  0.16006499  0.13161247  0.62700428  1
  Li  Li86  1  0.15703422  0.06068701  0.66533626  1
  Li  Li87  1  0.06934414  0.14279359  0.70614174  1
  Li  Li88  1  0.13854948  0.25847173  0.73204807  1
  Li  Li89  1  0.10270615  0.86509573  0.42856635  1
  Li  Li90  1  0.05842711  0.11047255  0.47355453  1
  Li  Li91  1  0.01482334  0.14913966  0.54366462  1
  Li  Li92  1  0.05780648  0.18113920  0.50720494  1
  Li  Li93  1  0.04830072  0.03477598  0.58433667  1
  Li  Li94  1  0.16882107  0.19452283  0.59139230  1
  Li  Li95  1  0.03674485  0.27310212  0.63787195  1
  Li  Li96  1  0.20839992  0.24528077  0.65633379  1
  Li  Li97  1  0.08995274  0.31043385  0.69883657  1
  Li  Li98  1  0.17799499  0.39603047  0.75313215  1
  Li  Li99  1  0.10406150  0.08300765  0.43791656  1
  Li  Li100  1  1.06076889  0.27492917  0.45816700  1
  Li  Li101  1  0.06815278  0.32338733  0.52723276  1
  Li  Li102  1  0.22926370  0.36450610  0.51159744  1
  Li  Li103  1  0.15422220  0.27808709  0.55694234  1
  Li  Li104  1  0.22633039  0.37384983  0.58667102  1
  Li  Li105  1  0.08484332  0.45777420  0.62964372  1
  Li  Li106  1  0.09617612  0.38708480  0.66368152  1
  Li  Li107  1  0.03081670  0.46902079  0.69587360  1
  Li  Li108  1  0.10552199  0.58483280  0.73840252  1
  Li  Li109  1  0.11600244  0.21515645  0.41245969  1
  Li  Li110  1  0.89590880  0.55496630  0.43766382  1
  Li  Li111  1  0.06016103  0.49666567  0.53374587  1
  Li  Li112  1  0.10831981  0.53116817  0.49778324  1
  Li  Li113  1  0.04928152  0.41575520  0.56774587  1
  Li  Li114  1  0.09493360  0.51561124  0.59505468  1
  Li  Li115  1  -0.00170247  0.62475572  0.62782340  1
  Li  Li116  1  0.19354549  0.54041017  0.67803885  1
  Li  Li117  1  0.10356020  0.62812091  0.70238674  1
  Li  Li118  1  0.16163882  0.79383066  0.71226983  1
  Li  Li119  1  0.10469179  0.37728921  0.42930600  1
  Li  Li120  1  -0.05928538  0.64990754  0.46802268  1
  Li  Li121  1  0.09244277  0.68092789  0.52805242  1
  Li  Li122  1  0.04240698  0.70225431  0.49476663  1
  Li  Li123  1  0.10897243  0.60373164  0.56313530  1
  Li  Li124  1  0.16402954  0.67157202  0.60646715  1
  Li  Li125  1  0.11109722  0.78810106  0.63149529  1
  Li  Li126  1  0.11578130  0.71710035  0.66767940  1
  Li  Li127  1  0.29414518  0.94361632  0.70399835  1
  Li  Li128  1  0.21489065  0.91925220  0.73464068  1
  Li  Li129  1  0.04338307  0.53823527  0.41451550  1
  Li  Li130  1  -0.05807968  0.81520871  0.44688642  1
  Li  Li131  1  0.00043345  0.85056476  0.52455165  1
  Li  Li132  1  0.14922829  0.86523967  0.49819967  1
  Li  Li133  1  0.07627759  0.78174177  0.56114838  1
  Li  Li134  1  0.10684651  0.85044499  0.59476994  1
  Li  Li135  1  0.03679408  0.91120921  0.65495988  1
  Li  Li136  1  0.20359865  0.88984856  0.67367641  1
  Li  Li137  1  0.12081547  0.98067554  0.70213750  1
  Li  Li138  1  0.23336596  1.09343567  0.72495557  1
  Li  Li139  1  0.06550930  0.67389250  0.43768955  1
  Li  Li140  1  0.13485749  -0.05652638  0.46298876  1
  Li  Li141  1  0.31589825  0.00983294  0.52146054  1
  Li  Li142  1  0.51725445  0.01971921  0.52543930  1
  Li  Li143  1  0.21833153  -0.07398205  0.56612854  1
  Li  Li144  1  0.36463630  0.01537383  0.61724598  1
  Li  Li145  1  0.32218149  0.11922073  0.64526094  1
  Li  Li146  1  0.33426717  0.04501128  0.67848492  1
  Li  Li147  1  0.22177418  0.17205502  0.69092909  1
  Li  Li148  1  0.32221387  0.23303684  0.74422961  1
  Li  Li149  1  0.27548287  0.93664361  0.39094059  1
  Li  Li150  1  0.23056291  0.23379861  0.44287388  1
  Li  Li151  1  0.36171673  0.05157171  0.55175582  1
  Li  Li152  1  0.36220587  0.16041999  0.49845503  1
  Li  Li153  1  0.18286094  0.09957484  0.56038809  1
  Li  Li154  1  0.32598953  0.19895842  0.61113110  1
  Li  Li155  1  0.20615395  0.31918813  0.62251346  1
  Li  Li156  1  0.37769606  0.23457467  0.67534817  1
  Li  Li157  1  0.28763442  0.30159960  0.71354053  1
  Li  Li158  1  0.36418933  0.43827640  0.73673125  1
  Li  Li159  1  0.27748265  0.10630707  0.41823240  1
  Li  Li160  1  0.20838790  0.23048884  0.48387746  1
  Li  Li161  1  0.23417689  0.19237020  0.52742332  1
  Li  Li162  1  0.37586526  0.38302054  0.53425755  1
  Li  Li163  1  0.34067620  0.25128059  0.56326170  1
  Li  Li164  1  0.38280664  0.37398236  0.60673688  1
  Li  Li165  1  0.25759409  0.43794496  0.64905555  1
  Li  Li166  1  0.25144416  0.36788553  0.68288912  1
  Li  Li167  1  0.18315219  0.45319267  0.71708555  1
  Li  Li168  1  0.38329601  0.46623088  0.78071238  1
  Li  Li169  1  0.27913961  0.28669892  0.40085365  1
  Li  Li170  1  0.06494186  0.49942339  0.45833941  1
  Li  Li171  1  0.25392132  0.54785269  0.52525134  1
  Li  Li172  1  0.31564116  0.50960625  0.49280158  1
  Li  Li173  1  0.22683316  0.45122656  0.55326351  1
  Li  Li174  1  0.25572720  0.50078790  0.61469254  1
  Li  Li175  1  0.17389797  0.60829598  0.64222519  1
  Li  Li176  1  0.34770633  0.51207528  0.69758297  1
  Li  Li177  1  0.26636905  0.62109389  0.71887752  1
  Li  Li178  1  0.44055746  0.62036532  0.73117580  1
  Li  Li179  1  0.29986869  0.40416243  0.43044790  1
  Li  Li180  1  0.20854513  0.62142758  0.46945403  1
  Li  Li181  1  0.26401945  0.69976953  0.54679505  1
  Li  Li182  1  0.23340159  0.69505953  0.50227683  1
  Li  Li183  1  0.28037315  0.57393458  0.58100580  1
  Li  Li184  1  0.32722998  0.66198620  0.62339829  1
  Li  Li185  1  0.27337702  0.77957764  0.64830625  1
  Li  Li186  1  0.26619021  0.71670635  0.68703233  1
  Li  Li187  1  0.35772207  0.79478067  0.71888328  1
  Li  Li188  1  0.48529293  0.83841269  0.77846087  1
  Li  Li189  1  0.20853319  0.55742533  0.43431882  1
  Li  Li190  1  0.10931081  0.76976958  0.46557924  1
  Li  Li191  1  0.19213008  0.85343467  0.53265405  1
  Li  Li192  1  0.40710426  0.98029099  0.49003377  1
  Li  Li193  1  0.26047498  0.75733173  0.57913644  1
  Li  Li194  1  0.27092632  0.83914090  0.61225496  1
  Li  Li195  1  0.20455398  0.95823947  0.63718658  1
  Li  Li196  1  0.39107160  0.85127368  0.68209891  1
  Li  Li197  1  0.33852881  0.87339532  0.75900916  1
  Li  Li198  1  0.31968687  1.04825174  0.75701192  1
  Li  Li199  1  0.21257267  0.71721140  0.40449562  1
  Li  Li200  1  0.29046374  0.06587320  0.46084062  1
  Li  Li201  1  0.37477507  -0.13168975  0.54456985  1
  Li  Li202  1  0.49605904  0.10116788  0.47091134  1
  Li  Li203  1  0.38813280  -0.08679728  0.58450546  1
  Li  Li204  1  0.53106817  -0.00493809  0.63276184  1
  Li  Li205  1  0.48583684  0.10140491  0.66143048  1
  Li  Li206  1  0.49393771  0.00733886  0.69508023  1
  Li  Li207  1  0.39129901  0.14500761  0.70961093  1
  Li  Li208  1  0.48095906  0.14051779  0.75174177  1
  Li  Li209  1  0.44517112  0.97721987  0.40505412  1
  Li  Li210  1  0.38133232  0.23961555  0.46353834  1
  Li  Li211  1  0.52486223  0.12557441  0.56211971  1
  Li  Li212  1  0.55358597  0.16524718  0.50123302  1
  Li  Li213  1  0.34557535  0.10039813  0.58332321  1
  Li  Li214  1  0.48970954  0.16909145  0.62670205  1
  Li  Li215  1  0.38339112  0.30391603  0.64102503  1
  Li  Li216  1  0.54355600  0.21342127  0.69102690  1
  Li  Li217  1  0.47947516  0.28566098  0.72938352  1
  Li  Li218  1  0.49665221  0.30578485  0.80055350  1
  Li  Li219  1  0.43449600  0.14063960  0.39248784  1
  Li  Li220  1  0.40339908  0.34394397  0.49376881  1
  Li  Li221  1  0.43341232  0.19998855  0.53057414  1
  Li  Li222  1  0.56218417  0.34838292  0.51576673  1
  Li  Li223  1  0.48390102  0.24333439  0.59070728  1
  Li  Li224  1  0.54935505  0.34798083  0.62108724  1
  Li  Li225  1  0.42905292  0.42352181  0.66864292  1
  Li  Li226  1  0.44642333  0.35816919  0.70038502  1
  Li  Li227  1  0.57144836  0.44906943  0.73832054  1
  Li  Li228  1  0.56501680  0.47378969  0.79643319  1
  Li  Li229  1  0.41454542  0.25338828  0.42611170  1
  Li  Li230  1  0.23769163  0.40152192  0.46614731  1
  Li  Li231  1  0.40385116  0.56455834  0.55140992  1
  Li  Li232  1  0.40858168  0.66200854  0.48555145  1
  Li  Li233  1  0.40148866  0.42213915  0.57181504  1
  Li  Li234  1  0.42756943  0.49354536  0.63433382  1
  Li  Li235  1  0.34061627  0.60445696  0.66007167  1
  Li  Li236  1  0.53300962  0.51299272  0.70636616  1
  Li  Li237  1  0.51110902  0.55471005  0.76415014  1
  Li  Li238  1  0.49494171  0.65589168  0.80125399  1
  Li  Li239  1  0.48016040  0.45083114  0.41589848  1
  Li  Li240  1  0.25725967  0.74353507  0.44118734  1
  Li  Li241  1  0.40266562  0.68286542  0.52192531  1
  Li  Li242  1  0.29918587  0.83669659  0.47240800  1
  Li  Li243  1  0.43639283  0.54925626  0.59938005  1
  Li  Li244  1  0.50442403  0.65620887  0.62870794  1
  Li  Li245  1  0.45393996  0.75542537  0.65527558  1
  Li  Li246  1  0.44139398  0.67380513  0.69392741  1
  Li  Li247  1  0.51152269  0.78925815  0.74016390  1
  Li  Li248  1  0.64034123  0.63531156  0.74121989  1
  Li  Li249  1  0.37876020  0.61333532  0.42266232  1
  Li  Li250  1  0.28097430  0.93182687  0.43294575  1
  Li  Li251  1  0.34180019  0.84106090  0.50855390  1
  Li  Li252  1  0.52624027  0.82801919  0.52190740  1
  Li  Li253  1  0.43802921  0.73002881  0.59621467  1
  Li  Li254  1  0.44131439  0.84328114  0.62317539  1
  Li  Li255  1  0.36792774  0.93812342  0.65119450  1
  Li  Li256  1  0.52975861  0.83268712  0.70425658  1
  Li  Li257  1  0.41995894  0.97765856  0.72765041  1
  Li  Li258  1  0.63728932  0.95692900  0.78398005  1
  Li  Li259  1  0.40926150  0.79580843  0.41727529  1
  Li  Li260  1  0.44139326  0.08344539  0.43617943  1
  Li  Li261  1  0.71778637  0.07188676  0.51239682  1
  Li  Li262  1  0.69960126  0.14845048  0.47315760  1
  Li  Li263  1  0.54358810  -0.06273329  0.56067432  1
  Li  Li264  1  0.68963820  0.00511242  0.61634085  1
  Li  Li265  1  0.65910371  0.13169651  0.64582263  1
  Li  Li266  1  0.64389691  0.07549893  0.67930077  1
  Li  Li267  1  0.58168160  0.12586225  0.72022622  1
  Li  Li268  1  0.76122757  0.17758707  0.71930964  1
  Li  Li269  1  0.60006523  0.91862223  0.41981378  1
  Li  Li270  1  0.56989418  0.21975947  0.44697743  1
  Li  Li271  1  0.63889514  0.19416748  0.53468773  1
  Li  Li272  1  0.57645706  0.31031938  0.47759037  1
  Li  Li273  1  0.51764059  0.05506118  0.59718809  1
  Li  Li274  1  0.65199723  0.19070409  0.61024557  1
  Li  Li275  1  0.55614017  0.28116347  0.65825983  1
  Li  Li276  1  0.72417264  0.24459974  0.67953557  1
  Li  Li277  1  0.64283103  0.32483983  0.71371865  1
  Li  Li278  1  0.67468949  0.30950738  0.79588360  1
  Li  Li279  1  0.60371848  0.09563029  0.41214178  1
  Li  Li280  1  0.45789279  0.39040241  0.45163561  1
  Li  Li281  1  0.53183932  0.31568647  0.55380736  1
  Li  Li282  1  0.70271636  0.44568052  0.49447296  1
  Li  Li283  1  0.66072333  0.25136508  0.57516225  1
  Li  Li284  1  0.72098995  0.36337657  0.60294983  1
  Li  Li285  1  0.60104092  0.45694588  0.64866677  1
  Li  Li286  1  0.61892031  0.40651493  0.68377119  1
  Li  Li287  1  0.67540828  0.40093818  0.76550834  1
  Li  Li288  1  0.72311356  0.50141460  0.71699316  1
  Li  Li289  1  0.59436091  0.28027810  0.41404918  1
  Li  Li290  1  0.36819469  0.54800606  0.45677224  1
  Li  Li291  1  0.47623285  0.51176755  0.51465115  1
  Li  Li292  1  0.58574327  0.64614556  0.50370185  1
  Li  Li293  1  0.56859762  0.41575099  0.58574849  1
  Li  Li294  1  0.60453522  0.52387906  0.61435112  1
  Li  Li295  1  0.51818701  0.58267122  0.66815058  1
  Li  Li296  1  0.68733953  0.57590765  0.67938957  1
  Li  Li297  1  0.69321730  0.56790947  0.77534143  1
  Li  Li298  1  0.78608495  0.70390230  0.76123246  1
  Li  Li299  1  0.55174068  0.56811479  0.44218969  1
  Li  Li300  1  0.44264508  0.72775588  0.45213511  1
  Li  Li301  1  0.57134276  0.66195269  0.53869000  1
  Li  Li302  1  0.49952817  0.81646783  0.48459829  1
  Li  Li303  1  0.58165897  0.47889559  0.54534956  1
  Li  Li304  1  0.63571523  0.70195482  0.60186285  1
  Li  Li305  1  0.61224860  0.81489866  0.63255168  1
  Li  Li306  1  0.61502378  0.75350431  0.67167811  1
  Li  Li307  1  0.61808465  0.67116022  0.70598225  1
  Li  Li308  1  0.70882046  0.80824818  0.72041362  1
  Li  Li309  1  0.53187182  0.61012615  0.39624296  1
  Li  Li310  1  0.45313657  0.91713516  0.45172652  1
  Li  Li311  1  0.44913502  0.74212276  0.56297748  1
  Li  Li312  1  0.61175068  0.97263670  0.48981601  1
  Li  Li313  1  0.56574791  0.59558182  0.57461745  1
  Li  Li314  1  0.57656895  0.87790601  0.59624314  1
  Li  Li315  1  0.53630807  0.92196018  0.66502195  1
  Li  Li316  1  0.68370205  0.89588855  0.68823554  1
  Li  Li317  1  0.51634008  0.97003003  0.75575214  1
  Li  Li318  1  0.62224029  0.96126882  0.72270039  1
  Li  Li319  1  0.58944076  0.73136173  0.42729473  1
  Li  Li320  1  0.62364922  0.03053340  0.44903129  1
  Li  Li321  1  0.70636865  0.04230598  0.54921011  1
  Li  Li322  1  0.87187536  0.09279971  0.49021422  1
  Li  Li323  1  0.74398618  -0.08884843  0.57714938  1
  Li  Li324  1  0.86859823  0.00544471  0.60188741  1
  Li  Li325  1  0.82164887  0.13169114  0.62823128  1
  Li  Li326  1  0.82228788  0.07358129  0.66461190  1
  Li  Li327  1  0.77362730  0.03213075  0.70015270  1
  Li  Li328  1  0.92714839  0.05710270  0.71695032  1
  Li  Li329  1  0.78499107  0.88273663  0.43218181  1
  Li  Li330  1  0.74647346  0.24089489  0.43710268  1
  Li  Li331  1  0.73211503  0.26107695  0.50138705  1
  Li  Li332  1  0.76203938  0.33247600  0.46675948  1
  Li  Li333  1  0.68647079  0.07395540  0.58253062  1
  Li  Li334  1  0.82531936  0.18965520  0.59277020  1
  Li  Li335  1  0.71490003  0.30005323  0.63817584  1
  Li  Li336  1  0.86937997  0.24369431  0.65463075  1
  Li  Li337  1  0.89001597  0.18681403  0.69083336  1
  Li  Li338  1  0.80372385  0.34360822  0.73837988  1
  Li  Li339  1  0.78187046  0.06822297  0.43233920  1
  Li  Li340  1  0.64237126  0.40222935  0.43987168  1
  Li  Li341  1  0.73487614  0.35588787  0.53365455  1
  Li  Li342  1  0.89980576  0.46999319  0.47994138  1
  Li  Li343  1  0.80136644  0.20566728  0.55581722  1
  Li  Li344  1  0.87723705  0.36374560  0.58265925  1
  Li  Li345  1  0.76462204  0.47879763  0.62941650  1
  Li  Li346  1  0.77014055  0.41458853  0.66431615  1
  Li  Li347  1  0.83086197  0.36174321  0.70354784  1
  Li  Li348  1  0.81458335  0.51459349  0.75047905  1
  Li  Li349  1  0.78374342  0.21885152  0.40196635  1
  Li  Li350  1  0.53313631  0.50264592  0.47848441  1
  Li  Li351  1  0.72068367  0.54084443  0.52266294  1
  Li  Li352  1  0.77140922  0.62351772  0.48938753  1
  Li  Li353  1  0.73058953  0.41662388  0.56525414  1
  Li  Li354  1  0.74523440  0.54406944  0.59157983  1
  Li  Li355  1  0.66296167  0.63189951  0.64380002  1
  Li  Li356  1  0.85023749  0.52465099  0.68891557  1
  Li  Li357  1  0.80539056  0.66397277  0.72093105  1
  Li  Li358  1  0.97826390  0.72959885  0.71921552  1
  Li  Li359  1  0.80831738  0.39872975  0.41894736  1
  Li  Li360  1  0.61601401  0.67371819  0.46855410  1
  Li  Li361  1  0.74691169  0.72221661  0.52963569  1
  Li  Li362  1  0.68245989  0.80016876  0.49816155  1
  Li  Li363  1  0.73851458  0.60271611  0.55743777  1
  Li  Li364  1  0.81226443  0.65777797  0.61856955  1
  Li  Li365  1  0.77262104  0.77832134  0.64742493  1
  Li  Li366  1  0.78243940  0.73135030  0.68684024  1
  Li  Li367  1  0.87267921  0.81576702  0.74214663  1
  Li  Li368  1  0.80242516  0.88136815  0.77481889  1
  Li  Li369  1  0.71464200  0.57402381  0.41951867  1
  Li  Li370  1  0.63573531  0.84469338  0.45691287  1
  Li  Li371  1  0.68616033  0.89812145  0.53097704  1
  Li  Li372  1  0.82256455  0.92090444  0.50496225  1
  Li  Li373  1  0.64825044  0.77394351  0.56313621  1
  Li  Li374  1  0.76500739  0.84162556  0.61082120  1
  Li  Li375  1  0.69930174  0.95154406  0.65210891  1
  Li  Li376  1  0.85616235  0.88865319  0.67181958  1
  Li  Li377  1  0.86812970  0.87581889  0.70674286  1
  Li  Li378  1  0.80344694  0.97957257  0.73684242  1
  Li  Li379  1  0.73400651  0.76491510  0.40130892  1
  Li  Li380  1  0.77929638  -0.03144935  0.46915996  1
  Li  Li381  1  0.88740447  0.02112577  0.53133158  1
  Li  Li382  1  0.01297141  0.00254514  0.50319343  1
  Li  Li383  1  0.93465098  -0.13009868  0.58190562  1
  Li  Li384  1  0.04127640  -0.03013181  0.61904107  1
  Li  Li385  1  0.99065181  0.09020608  0.64583064  1
  Li  Li386  1  -0.02211989  0.02458543  0.68203048  1
  Li  Li387  1  0.86961908  0.14433295  0.74917415  1
  Li  Li388  1  0.00783146  0.25418871  0.75748461  1
  Li  Li389  1  0.00053712  0.86095215  0.39596992  1
  Li  Li390  1  0.88402383  0.16795367  0.45699883  1
  Li  Li391  1  0.86916706  0.19935944  0.52171383  1
  Li  Li392  1  0.91526215  0.26851398  0.48519673  1
  Li  Li393  1  0.87907036  0.05184652  0.56742599  1
  Li  Li394  1  -0.00590515  0.15416405  0.61034178  1
  Li  Li395  1  0.87709842  0.31017228  0.61912744  1
  Li  Li396  1  0.04494922  0.20256584  0.67182220  1
  Li  Li397  1  0.94902308  0.24971588  0.72185559  1
  Li  Li398  1  0.00200404  0.40711048  0.73529728  1
  Li  Li399  1  0.94759435  0.00547922  0.41715353  1
  Li  Li400  1  0.91592038  0.37712306  0.44713733  1
  Li  Li401  1  0.89535647  0.38962596  0.51262148  1
  Li  Li402  1  0.06663567  0.36506048  0.49041526  1
  Li  Li403  1  0.99388934  0.21284210  0.57526087  1
  Li  Li404  1  0.04483315  0.33669790  0.60205167  1
  Li  Li405  1  0.92310963  0.42825894  0.64434835  1
  Li  Li406  1  -0.06569653  0.35688595  0.67698272  1
  Li  Li407  1  0.92975067  0.54122326  0.72052591  1
  Li  Li408  1  0.04948225  0.54744066  0.80910891  1
  Li  Li409  1  0.94520961  0.21944711  0.42589990  1
  Li  Li410  1  0.73775853  0.52250829  0.45899824  1
  Li  Li411  1  0.87342154  0.49436476  0.54347640  1
  Li  Li412  1  0.91909953  0.57555817  0.51183929  1
  Li  Li413  1  0.92471356  0.32652001  0.54825267  1
  Li  Li414  1  -0.08270103  0.49224920  0.60872837  1
  Li  Li415  1  0.83706761  0.59617430  0.65520063  1
  Li  Li416  1  0.01697578  0.55169831  0.66288423  1
  Li  Li417  1  0.95047416  0.63814187  0.75243968  1
  Li  Li418  1  0.08343939  0.77688130  0.74724233  1
  Li  Li419  1  0.98492401  0.37094320  0.39592905  1
  Li  Li420  1  0.76757296  0.70085268  0.44376871  1
  Li  Li421  1  0.92241166  0.68053752  0.54710770  1
  Li  Li422  1  0.87937054  0.75114152  0.50717017  1
  Li  Li423  1  0.91770526  0.54981450  0.57432006  1
  Li  Li424  1  -0.00474390  0.68527915  0.59134136  1
  Li  Li425  1  0.95010229  0.75008255  0.65295082  1
  Li  Li426  1  -0.05212235  0.67275823  0.68637392  1
  Li  Li427  1  0.97154270  0.79673821  0.77436078  1
  Li  Li428  1  0.19185857  0.78568846  0.77861641  1
  Li  Li429  1  0.88682884  0.55645707  0.39515983  1
  Li  Li430  1  0.80801410  0.78843700  0.47279946  1
  Li  Li431  1  0.85068982  0.85583927  0.54904359  1
  Li  Li432  1  -0.03226325  0.87392363  0.48168178  1
  Li  Li433  1  0.81217166  0.72318454  0.58204373  1
  Li  Li434  1  -0.05673899  0.80649526  0.61700417  1
  Li  Li435  1  0.86639919  0.94587185  0.63673011  1
  Li  Li436  1  0.02690542  0.83737296  0.68922377  1
  Li  Li437  1  1.01985578  0.91395020  0.72880325  1
  Li  Li438  1  0.06246077  1.08448973  0.74151582  1
  Li  Li439  1  0.91127110  0.72092906  0.41721086  1
  Li  Li440  1  0.05133859  0.08362863  0.78496517  1
  Li  Li441  1  0.05027327  0.08885446  0.88730336  1
  Li  Li442  1  0.16605989  0.13711862  0.94725779  1
  Li  Li443  1  -0.02515843  0.07870499  0.96665929  1
  Li  Li444  1  0.13161994  -0.05697766  0.76377467  1
  Li  Li445  1  0.03643687  0.20551884  0.81606870  1
  Li  Li446  1  0.06729617  0.16559626  0.85251713  1
  Li  Li447  1  0.12289508  0.24711748  0.91136202  1
  Li  Li448  1  0.08159477  0.28782112  0.97519650  1
  Li  Li449  1  0.18073484  0.16124395  0.76394973  1
  Li  Li450  1  -0.02836218  0.33052739  0.84100429  1
  Li  Li451  1  0.04525210  0.35898155  0.88289554  1
  Li  Li452  1  0.16540056  0.44688689  0.90827956  1
  Li  Li453  1  0.03792092  0.44086820  0.93873928  1
  Li  Li454  1  0.10457260  0.30246250  0.78487618  1
  Li  Li455  1  0.07784146  0.46495601  0.84841038  1
  Li  Li456  1  0.03827178  0.55839554  0.88039524  1
  Li  Li457  1  0.20509138  0.63465079  0.89801093  1
  Li  Li458  1  0.18211283  0.48225602  0.97172479  1
  Li  Li459  1  0.01670445  0.47511366  0.77023757  1
  Li  Li460  1  0.00414957  0.72011625  0.80345094  1
  Li  Li461  1  0.11471443  0.91583999  0.86897120  1
  Li  Li462  1  0.13379379  0.76331940  0.92714943  1
  Li  Li463  1  0.04072920  0.63752582  0.95714236  1
  Li  Li464  1  0.10915318  0.63020386  0.77604847  1
  Li  Li465  1  0.08258919  0.89940047  0.80098121  1
  Li  Li466  1  -0.00314446  0.99076317  0.84085853  1
  Li  Li467  1  0.20081296  1.02425973  0.91397523  1
  Li  Li468  1  0.10124236  0.93584483  0.94250818  1
  Li  Li469  1  0.25303919  0.72845681  0.74546985  1
  Li  Li470  1  0.13090034  0.04895999  0.81963265  1
  Li  Li471  1  0.22907799  0.16384833  0.88187657  1
  Li  Li472  1  0.31691290  0.18137834  0.92060898  1
  Li  Li473  1  0.20530825  -0.02097764  0.97358149  1
  Li  Li474  1  0.24421695  -0.00823677  0.78900405  1
  Li  Li475  1  0.21807282  0.17887012  0.79891533  1
  Li  Li476  1  0.18386043  0.31349338  0.86212887  1
  Li  Li477  1  0.30980674  0.33145959  0.89356377  1
  Li  Li478  1  0.29103115  0.21385423  0.97536558  1
  Li  Li479  1  0.38533287  0.16434652  0.78444499  1
  Li  Li480  1  0.14314925  0.36248183  0.82109335  1
  Li  Li481  1  0.22734553  0.50216986  0.87048337  1
  Li  Li482  1  0.37235553  0.44932984  0.92854238  1
  Li  Li483  1  0.22083188  0.33600406  0.94312299  1
  Li  Li484  1  0.29802030  0.31304418  0.77345070  1
  Li  Li485  1  0.21972530  0.55057158  0.82844168  1
  Li  Li486  1  0.36900957  0.52258521  0.89651052  1
  Li  Li487  1  0.33200865  0.69519213  0.92376976  1
  Li  Li488  1  0.21593419  0.56379423  0.93830401  1
  Li  Li489  1  0.19402929  0.46610237  0.79102779  1
  Li  Li490  1  0.17224307  0.72397066  0.81531829  1
  Li  Li491  1  0.20353388  0.70814636  0.85762869  1
  Li  Li492  1  0.22155009  0.83107118  0.89641718  1
  Li  Li493  1  0.22282081  0.74568438  0.96164126  1
  Li  Li494  1  0.29499025  0.63183304  0.79346272  1
  Li  Li495  1  0.22153745  0.88516145  0.83190071  1
  Li  Li496  1  0.21629621  1.04442729  0.85330268  1
  Li  Li497  1  0.30990640  0.99112680  0.88531681  1
  Li  Li498  1  0.30320588  0.88712766  0.93494141  1
  Li  Li499  1  0.33662015  0.82758109  0.79942369  1
  Li  Li500  1  0.32587540  0.04254032  0.81785025  1
  Li  Li501  1  0.40147200  0.04247308  0.85063538  1
  Li  Li502  1  0.43097371  0.14545702  0.88937871  1
  Li  Li503  1  0.36446665  0.05717058  0.95083823  1
  Li  Li504  1  0.55685050  0.04328718  0.81892531  1
  Li  Li505  1  0.23965462  0.20471770  0.83392729  1
  Li  Li506  1  0.38542135  0.23351330  0.85877506  1
  Li  Li507  1  0.48585865  0.28829715  0.91226226  1
  Li  Li508  1  0.42780118  0.26329049  0.94746434  1
  Li  Li509  1  0.44383954  -0.00392933  0.78995349  1
  Li  Li510  1  0.31713005  0.33331367  0.80781439  1
  Li  Li511  1  0.43601496  0.41527877  0.86957774  1
  Li  Li512  1  0.56503970  0.44676210  0.89803399  1
  Li  Li513  1  0.40255745  0.41892997  0.96880739  1
  Li  Li514  1  0.49191950  0.32731639  0.76518415  1
  Li  Li515  1  0.26978051  0.55865939  0.75774849  1
  Li  Li516  1  0.38108765  0.57209843  0.85207634  1
  Li  Li517  1  0.50890687  0.62099163  0.91378930  1
  Li  Li518  1  0.42508922  0.62199993  0.95532693  1
  Li  Li519  1  0.30839249  0.39323710  0.84164122  1
  Li  Li520  1  0.35517208  0.70773938  0.82763779  1
  Li  Li521  1  0.37207783  0.69239740  0.88038919  1
  Li  Li522  1  0.41393476  0.83765986  0.90317904  1
  Li  Li523  1  0.50854959  0.79177093  0.93559209  1
  Li  Li524  1  0.39346162  0.50420511  0.81539757  1
  Li  Li525  1  0.42858232  0.89431568  0.82732778  1
  Li  Li526  1  0.35194515  0.85440820  0.86086698  1
  Li  Li527  1  0.44874526  1.01226657  0.91843076  1
  Li  Li528  1  0.40229675  0.85944454  0.96923517  1
  Li  Li529  1  0.39979497  0.69411814  0.76629314  1
  Li  Li530  1  0.58184949  0.14657549  0.78334257  1
  Li  Li531  1  0.56864722  0.11201269  0.85748397  1
  Li  Li532  1  0.62270614  0.10489223  0.90060093  1
  Li  Li533  1  0.50616225  0.12680314  0.97610248  1
  Li  Li534  1  0.72946300  -0.06427923  0.81354541  1
  Li  Li535  1  0.43393176  0.18979761  0.82391540  1
  Li  Li536  1  0.57354463  0.27549185  0.87638139  1
  Li  Li537  1  0.68617375  0.27984414  0.91742531  1
  Li  Li538  1  0.57017064  0.13866169  0.93701355  1
  Li  Li539  1  0.64281935  0.24858264  0.74638384  1
  Li  Li540  1  0.49865380  0.37101156  0.83532415  1
  Li  Li541  1  0.63359210  0.43759601  0.86048336  1
  Li  Li542  1  0.71873852  0.50063666  0.91764627  1
  Li  Li543  1  0.56369620  0.43587930  0.93888062  1
  Li  Li544  1  0.63285128  0.23287672  0.83239332  1
  Li  Li545  1  0.54979690  0.56503024  0.83390498  1
  Li  Li546  1  0.55277034  0.60037423  0.87373618  1
  Li  Li547  1  0.67820176  0.70508231  0.90695463  1
  Li  Li548  1  0.64205022  0.62479907  0.94360665  1
  Li  Li549  1  0.68652759  0.42625474  0.82484771  1
  Li  Li550  1  0.50657129  0.73709477  0.84691042  1
  Li  Li551  1  0.55206299  0.78755591  0.88045083  1
  Li  Li552  1  0.60997268  0.89620155  0.90941785  1
  Li  Li553  1  0.60459318  0.75327945  0.97191746  1
  Li  Li554  1  0.69468413  0.60646858  0.81005507  1
  Li  Li555  1  0.56949450  0.82384760  0.80913472  1
  Li  Li556  1  0.50642876  0.97009233  0.87961967  1
  Li  Li557  1  0.71213765  1.00306044  0.93127406  1
  Li  Li558  1  0.56930723  0.95231841  0.95437586  1
  Li  Li559  1  0.61106703  0.72338643  0.77490704  1
  Li  Li560  1  0.67582431  0.06874066  0.75306173  1
  Li  Li561  1  0.73873314  0.05042651  0.84229129  1
  Li  Li562  1  0.83767008  0.06980456  0.90295850  1
  Li  Li563  1  0.72638335  0.08995775  0.96855834  1
  Li  Li564  1  0.67092825  -0.14389713  0.75252031  1
  Li  Li565  1  0.73082291  0.13073188  0.80788404  1
  Li  Li566  1  0.74109457  0.16864154  0.87357797  1
  Li  Li567  1  0.90613093  0.26098707  0.90890352  1
  Li  Li568  1  0.64204336  0.28537087  0.95917379  1
  Li  Li569  1  0.81117567  0.05273016  0.78050511  1
  Li  Li570  1  0.77568456  0.31891404  0.85052375  1
  Li  Li571  1  0.76250397  0.36005581  0.88731215  1
  Li  Li572  1  0.87820548  0.67939924  0.90045749  1
  Li  Li573  1  0.82369016  0.37805970  0.93985153  1
  Li  Li574  1  0.75472706  0.22036974  0.77187224  1
  Li  Li575  1  0.73337001  0.58530746  0.84732280  1
  Li  Li576  1  0.74529004  0.56200036  0.88352074  1
  Li  Li577  1  1.05399892  0.74182354  0.88406107  1
  Li  Li578  1  0.71692260  0.48528068  0.96731366  1
  Li  Li579  1  0.79385516  0.45380153  0.79483134  1
  Li  Li580  1  0.68310669  0.75411300  0.83286237  1
  Li  Li581  1  0.72796474  0.76077730  0.86953413  1
  Li  Li582  1  0.81346562  0.86846501  0.90581285  1
  Li  Li583  1  0.72866325  0.80155331  0.93888703  1
  Li  Li584  1  0.88846284  0.60504717  0.78737690  1
  Li  Li585  1  0.59547473  0.91223787  0.84747180  1
  Li  Li586  1  0.71237807  0.95832518  0.87684675  1
  Li  Li587  1  0.89160383  0.95760104  0.94022797  1
  Li  Li588  1  0.78311290  0.89656187  0.97034034  1
  Li  Li589  1  0.76140620  0.75774331  0.79696114  1
  Li  Li590  1  0.91101374  0.04787137  0.81104167  1
  Li  Li591  1  0.89365823  0.03922468  0.86787605  1
  Li  Li592  1  0.00584511  0.09200607  0.92449350  1
  Li  Li593  1  0.85057923  0.27129705  0.97368924  1
  Li  Li594  1  0.94923497  -0.02568237  0.76211749  1
  Li  Li595  1  0.87856462  0.16058085  0.83861375  1
  Li  Li596  1  0.91993384  0.23606092  0.87295801  1
  Li  Li597  1  -0.00399287  0.25892386  0.94331954  1
  Li  Li598  1  0.81351064  0.16645727  0.93883950  1
  Li  Li599  1  0.91799108  0.21005905  0.78875158  1
  Li  Li600  1  0.82865928  0.29314109  0.81535374  1
  Li  Li601  1  0.88484858  0.46608113  0.86392413  1
  Li  Li602  1  -0.08613003  0.46204659  0.90543094  1
  Li  Li603  1  0.93972897  0.46879607  0.97125660  1
  Li  Li604  1  0.87161500  0.36167203  0.77019383  1
  Li  Li605  1  0.88055830  0.49945200  0.82756062  1
  Li  Li606  1  0.89741451  0.67107314  0.86216633  1
  Li  Li607  1  0.03756800  0.60567010  0.91788086  1
  Li  Li608  1  0.85775411  0.58273591  0.93775963  1
  Li  Li609  1  0.97288631  0.38711756  0.80277913  1
  Li  Li610  1  0.86513000  0.69390844  0.82596970  1
  Li  Li611  1  1.02961652  0.81271462  0.83929766  1
  Li  Li612  1  -0.06809310  0.77069278  0.93434414  1
  Li  Li613  1  0.82760724  0.68393302  0.96890065  1
  Li  Li614  1  1.04289675  0.63336360  0.84134529  1
  Li  Li615  1  0.82931628  0.87372952  0.84269985  1
  Li  Li616  1  0.91441661  0.86011600  0.87403137  1
  Li  Li617  1  0.01797273  0.90771002  0.90628829  1
  Li  Li618  1  1.00481814  0.83977320  0.96991157  1
  Li  Li619  1  0.90112100  0.87085133  0.80747407  1
  La  La620  1  0.25348738  0.00641038  0.18452214  1
  La  La621  1  0.77256377  0.45383285  0.18492978  1
  La  La622  1  0.89622171  0.72548606  0.20159896  1
  La  La623  1  0.39479054  0.72423769  0.20137124  1
  La  La624  1  0.61357849  0.25629786  0.20440005  1
  La  La625  1  0.13706563  0.22905523  0.20483962  1
  La  La626  1  0.75030300  1.02570948  0.21979478  1
  La  La627  1  0.26378362  0.47359779  0.22328669  1
  La  La628  1  0.50147736  0.11258113  0.24281825  1
  La  La629  1  0.00465732  0.37510621  0.24334972  1
  La  La630  1  0.48828966  0.61307363  0.24389150  1
  La  La631  1  -0.02097996  0.87885365  0.23981431  1
  La  La632  1  0.75192111  0.49639970  0.26271762  1
  La  La633  1  0.25204612  0.98464694  0.25841848  1
  La  La634  1  0.38012588  0.21816016  0.28534996  1
  La  La635  1  0.88142492  0.26027905  0.28444523  1
  La  La636  1  0.12595119  0.75179541  0.28224159  1
  La  La637  1  0.62174752  0.75397156  0.28203757  1
  La  La638  1  0.25392491  0.49424162  0.30524748  1
  La  La639  1  0.75963624  0.98956905  0.30463794  1
  La  La640  1  -0.00251249  0.62826440  0.32316212  1
  La  La641  1  0.49483413  0.85741640  0.32471659  1
  La  La642  1  0.00319571  0.12371311  0.32309422  1
  La  La643  1  0.51035034  0.35530981  0.32348660  1
  La  La644  1  0.24689713  -0.01043640  0.34088662  1
  La  La645  1  0.75262312  0.48931009  0.33968103  1
  La  La646  1  0.87413826  0.75773637  0.36326869  1
  La  La647  1  0.37508719  0.71020473  0.36516332  1
  La  La648  1  0.63134067  0.24026262  0.36433547  1
  La  La649  1  0.12248024  0.26868015  0.36443634  1
  La  La650  1  0.76360230  -0.00686734  0.38420962  1
  La  La651  1  0.22805351  0.49790825  0.38554906  1
  Zr  Zr652  1  0.98939135  0.03130140  0.19694068  1
  Zr  Zr653  1  0.50980718  -0.01010539  0.20131643  1
  Zr  Zr654  1  0.51585604  0.49782370  0.20074589  1
  Zr  Zr655  1  0.01895409  0.48389492  0.20203063  1
  Zr  Zr656  1  0.74804161  0.25366801  0.24553957  1
  Zr  Zr657  1  0.75376912  0.73482103  0.24234097  1
  Zr  Zr658  1  0.24952679  0.23930474  0.24637880  1
  Zr  Zr659  1  0.25305792  0.74010802  0.24182495  1
  Zr  Zr660  1  0.50919653  0.49135736  0.28488363  1
  Zr  Zr661  1  0.00015777  0.50280501  0.28402963  1
  Zr  Zr662  1  0.00816819  0.99057707  0.28303306  1
  Zr  Zr663  1  0.49726343  0.98614270  0.28473220  1
  Zr  Zr664  1  0.25620658  0.73693819  0.32401189  1
  Zr  Zr665  1  0.24798579  0.25102709  0.32565849  1
  Zr  Zr666  1  0.75465504  0.75217246  0.32449499  1
  Zr  Zr667  1  0.75743342  0.22863740  0.32510514  1
  Zr  Zr668  1  0.01705773  -0.01709426  0.36565140  1
  Zr  Zr669  1  0.50062483  0.00411428  0.36807637  1
  Zr  Zr670  1  0.52517562  0.49496659  0.36454768  1
  Zr  Zr671  1  -0.01132946  0.49688285  0.36441828  1
  O  O672  1  0.46386106  0.04381744  0.17747035  1
  O  O673  1  0.07991554  0.98572137  0.17774269  1
  O  O674  1  0.64146931  0.56633502  0.18696185  1
  O  O675  1  0.97309552  0.42782596  0.17860384  1
  O  O676  1  0.22834595  0.85472502  0.19588255  1
  O  O677  1  0.28266436  0.17182982  0.19089417  1
  O  O678  1  0.78443774  0.77381054  0.18074730  1
  O  O679  1  0.78969606  0.29510657  0.18683242  1
  O  O680  1  0.53543891  0.84901071  0.19805822  1
  O  O681  1  0.97162931  0.17381851  0.19297009  1
  O  O682  1  0.04710336  0.63380191  0.19970135  1
  O  O683  1  0.46261197  0.36977447  0.19224395  1
  O  O684  1  0.84214051  1.00632468  0.19188892  1
  O  O685  1  0.63804259  0.08346587  0.19711613  1
  O  O686  1  0.17414573  0.45897141  0.19378377  1
  O  O687  1  0.37898675  0.55982234  0.19376203  1
  O  O688  1  0.36972339  0.99045785  0.20941335  1
  O  O689  1  0.12971093  0.05887856  0.20993371  1
  O  O690  1  0.64988477  0.41969858  0.20973865  1
  O  O691  1  0.86950724  0.52719810  0.20701577  1
  O  O692  1  0.47243750  0.18511001  0.21515195  1
  O  O693  1  0.01312305  0.85343773  0.20767477  1
  O  O694  1  0.99990020  0.34751152  0.21319109  1
  O  O695  1  0.52301396  0.63897963  0.21470158  1
  O  O696  1  0.78700720  0.19474316  0.22022804  1
  O  O697  1  0.71866315  0.76161473  0.21640295  1
  O  O698  1  0.28215226  0.30370465  0.22088254  1
  O  O699  1  0.23132260  0.66940373  0.21670516  1
  O  O700  1  0.93745851  0.02783324  0.22574900  1
  O  O701  1  0.58104500  0.97350493  0.22825204  1
  O  O702  1  0.08900187  0.50212426  0.22871881  1
  O  O703  1  0.45205203  0.46370106  0.22670045  1
  O  O704  1  0.10612504  0.21017912  0.23783203  1
  O  O705  1  0.38810378  0.78306834  0.23086104  1
  O  O706  1  0.60479293  0.28072504  0.23823155  1
  O  O707  1  0.90497615  0.71246809  0.23463461  1
  O  O708  1  0.31749982  0.11020480  0.24035697  1
  O  O709  1  0.19384061  0.87864316  0.23591639  1
  O  O710  1  0.81834150  0.38349787  0.23998914  1
  O  O711  1  0.73163967  0.58657221  0.23622292  1
  O  O712  1  0.21460338  0.38537568  0.25133006  1
  O  O713  1  0.31280780  0.60313361  0.24914144  1
  O  O714  1  0.70859513  0.10687436  0.24987733  1
  O  O715  1  0.80161364  0.87917851  0.24645836  1
  O  O716  1  0.40100383  0.28113880  0.25603133  1
  O  O717  1  0.11306173  0.69256100  0.25157073  1
  O  O718  1  0.90017856  0.20436323  0.25488619  1
  O  O719  1  0.60388861  0.77881849  0.25009563  1
  O  O720  1  0.94081057  0.52169425  0.25865832  1
  O  O721  1  0.56671588  0.47421665  0.25916988  1
  O  O722  1  0.06288266  0.01498851  0.25764500  1
  O  O723  1  0.43787004  0.97202087  0.25987064  1
  O  O724  1  0.72970691  0.31577817  0.27150817  1
  O  O725  1  0.76223948  0.67762328  0.26928464  1
  O  O726  1  0.22832092  0.17014181  0.27181940  1
  O  O727  1  0.27164301  0.80556043  0.26746532  1
  O  O728  1  0.03440959  0.34904243  0.27930323  1
  O  O729  1  0.47892354  0.64317685  0.27882852  1
  O  O730  1  0.53617334  0.13355831  0.27964362  1
  O  O731  1  0.97375960  0.84390467  0.27674373  1
  O  O732  1  0.35855141  0.46888093  0.28092338  1
  O  O733  1  0.14869316  0.53052332  0.28002822  1
  O  O734  1  0.64328395  0.94512189  0.27918760  1
  O  O735  1  0.85699104  0.01639755  0.27957085  1
  O  O736  1  0.85777971  0.45045975  0.29245441  1
  O  O737  1  0.65173092  0.52801110  0.29322983  1
  O  O738  1  0.15224171  0.94549985  0.29111421  1
  O  O739  1  0.35931797  0.04185819  0.29388170  1
  O  O740  1  0.97890425  0.64365975  0.29188007  1
  O  O741  1  0.52388777  0.34298897  0.29191752  1
  O  O742  1  0.47296821  0.84549987  0.29411729  1
  O  O743  1  0.02407572  0.13706155  0.29185372  1
  O  O744  1  0.29112680  0.67819093  0.29915461  1
  O  O745  1  0.21920749  0.30688178  0.30106275  1
  O  O746  1  0.78825321  0.80944045  0.29934642  1
  O  O747  1  0.72132932  0.17043534  0.30001978  1
  O  O748  1  0.45339104  0.51837730  0.31128087  1
  O  O749  1  0.05673515  0.47127029  0.31112230  1
  O  O750  1  0.55283822  0.01219996  0.31243854  1
  O  O751  1  0.95701382  0.96340094  0.31032016  1
  O  O752  1  0.60681922  0.71778807  0.31762193  1
  O  O753  1  0.90152193  0.27324358  0.31730211  1
  O  O754  1  0.11017684  0.77048547  0.31667838  1
  O  O755  1  0.39807294  0.21121758  0.32022139  1
  O  O756  1  0.81554225  0.61234016  0.32100398  1
  O  O757  1  0.69012389  0.36813674  0.32102697  1
  O  O758  1  0.31401427  0.87867361  0.32175864  1
  O  O759  1  0.19021062  0.10840362  0.32123487  1
  O  O760  1  0.71109253  0.88731320  0.33201933  1
  O  O761  1  0.82202229  0.09675835  0.32961798  1
  O  O762  1  0.20465939  0.60143488  0.33183226  1
  O  O763  1  0.29638409  0.38562223  0.33277844  1
  O  O764  1  0.90585870  0.77952105  0.33305902  1
  O  O765  1  0.60955148  0.19899245  0.33416916  1
  O  O766  1  0.40644803  0.70638663  0.33451446  1
  O  O767  1  0.09901066  0.28071852  0.33414675  1
  O  O768  1  0.43048557  0.01879250  0.34321361  1
  O  O769  1  0.07363780  0.95259864  0.34049609  1
  O  O770  1  0.57652110  0.52792299  0.33938015  1
  O  O771  1  0.93212464  0.46048648  0.33921233  1
  O  O772  1  0.22307095  0.78426021  0.35066168  1
  O  O773  1  0.27193569  0.18041480  0.35344135  1
  O  O774  1  0.72429317  0.68734806  0.35127709  1
  O  O775  1  0.78804061  0.28901590  0.35081795  1
  O  O776  1  0.51808588  0.85659466  0.36254700  1
  O  O777  1  1.00854993  0.13077707  0.36183300  1
  O  O778  1  0.01774802  0.63764552  0.35637299  1
  O  O779  1  0.48751492  0.35248969  0.35781295  1
  O  O780  1  0.87484435  0.94718906  0.35944978  1
  O  O781  1  0.64664082  0.02577561  0.35968599  1
  O  O782  1  0.13621981  0.44931552  0.35946312  1
  O  O783  1  0.37053857  0.53194020  0.35983540  1
  O  O784  1  0.37772304  1.01776589  0.38442956  1
  O  O785  1  0.17354094  -0.01854466  0.37411676  1
  O  O786  1  0.66855296  0.44438200  0.36916325  1
  O  O787  1  0.84701307  0.53514041  0.37167945  1
  O  O788  1  0.48439112  0.15806610  0.36874014  1
  O  O789  1  0.02659391  0.82848528  0.37197449  1
  O  O790  1  0.96350127  0.34439397  0.37047046  1
  O  O791  1  0.53750034  0.64098786  0.37075183  1
  O  O792  1  0.80226191  0.15091532  0.38177891  1
  O  O793  1  0.71717779  0.82885006  0.37965998  1
  O  O794  1  0.29975494  0.34452716  0.37957223  1
  O  O795  1  0.21334283  0.65592142  0.38004499  1
  O  O796  1  0.97247586  -0.00088900  0.39263299  1
  O  O797  1  0.57479764  0.98338314  0.39476677  1
  O  O798  1  0.03699601  0.52370193  0.39056709  1
  O  O799  1  0.50498879  0.47204237  0.39210756  1
