# generated using pymatgen
data_Li330La16Zr10O65
_symmetry_space_group_name_H-M   'P 1'
_cell_length_a   13.81862379
_cell_length_b   14.27428230
_cell_length_c   78.81468226
_cell_angle_alpha   89.40635648
_cell_angle_beta   90.16766351
_cell_angle_gamma   90.14932171
_symmetry_Int_Tables_number   1
_chemical_formula_structural   Li330La16Zr10O65
_chemical_formula_sum   'Li660 La32 Zr20 O130'
_cell_volume   15545.31733148
_cell_formula_units_Z   2
loop_
 _symmetry_equiv_pos_site_id
 _symmetry_equiv_pos_as_xyz
  1  'x, y, z'
loop_
 _atom_site_type_symbol
 _atom_site_label
 _atom_site_symmetry_multiplicity
 _atom_site_fract_x
 _atom_site_fract_y
 _atom_site_fract_z
 _atom_site_occupancy
  Li  Li0  1  0.97895252  0.89951627  0.16165523  1
  Li  Li1  1  0.59980660  0.03832493  0.16872819  1
  Li  Li2  1  0.05635979  0.49932334  0.15580016  1
  Li  Li3  1  0.24531125  0.65769004  0.15528916  1
  Li  Li4  1  0.58048490  0.67189009  0.18105734  1
  Li  Li5  1  0.89397953  0.35764153  0.17213973  1
  Li  Li6  1  0.15810431  0.84051938  0.16192420  1
  Li  Li7  1  0.44150197  0.14554085  0.18238735  1
  Li  Li8  1  0.66978407  0.80646382  0.18994159  1
  Li  Li9  1  0.77885259  -0.06019333  0.17324513  1
  Li  Li10  1  0.11035428  0.65443303  0.17207974  1
  Li  Li11  1  0.23585756  0.50230398  0.17482566  1
  Li  Li12  1  0.84987600  0.20464505  0.18945438  1
  Li  Li13  1  0.66301774  0.64891330  0.20790644  1
  Li  Li14  1  0.34549978  0.29643544  0.18628184  1
  Li  Li15  1  0.12437783  0.76270436  0.19291974  1
  Li  Li16  1  0.34495336  0.16493169  0.20610744  1
  Li  Li17  1  0.17881768  0.88697630  0.20909461  1
  Li  Li18  1  0.85967072  0.37402259  0.20520571  1
  Li  Li19  1  0.75654411  0.48960421  0.21628641  1
  Li  Li20  1  0.43405324  0.31595112  0.21305261  1
  Li  Li21  1  0.10532848  0.65674459  0.21475320  1
  Li  Li22  1  0.91630943  0.12812904  0.21433171  1
  Li  Li23  1  0.52747007  0.85749956  0.23062933  1
  Li  Li24  1  0.34589302  0.95633634  0.21896812  1
  Li  Li25  1  0.17692971  0.06610137  0.22020419  1
  Li  Li26  1  0.57917026  0.42434573  0.22478346  1
  Li  Li27  1  0.92837322  0.57901350  0.22320980  1
  Li  Li28  1  0.42764193  0.39835388  0.24295111  1
  Li  Li29  1  0.15159476  0.58254594  0.24328571  1
  Li  Li30  1  0.68150992  0.93255123  0.24942857  1
  Li  Li31  1  0.83333622  0.04655407  0.24612696  1
  Li  Li32  1  0.03262861  0.13149193  0.23977280  1
  Li  Li33  1  0.41960454  0.84641214  0.25457378  1
  Li  Li34  1  0.61238982  0.32463799  0.24910508  1
  Li  Li35  1  0.98426348  0.66476991  0.24601128  1
  Li  Li36  1  0.22381280  0.40033228  0.26052418  1
  Li  Li37  1  0.30380705  0.55688044  0.25804798  1
  Li  Li38  1  0.67142653  0.11056448  0.26111120  1
  Li  Li39  1  0.84024898  0.88542164  0.26613916  1
  Li  Li40  1  0.37516155  0.72902614  0.27367600  1
  Li  Li41  1  0.13751857  0.22133004  0.27126641  1
  Li  Li42  1  0.88311719  0.72317458  0.27361355  1
  Li  Li43  1  0.63558300  0.24770579  0.27630848  1
  Li  Li44  1  0.78140404  0.57710122  0.28584912  1
  Li  Li45  1  0.67630121  0.41878614  0.28644508  1
  Li  Li46  1  0.29919260  0.90137591  0.28533892  1
  Li  Li47  1  0.22049168  0.06477220  0.28821981  1
  Li  Li48  1  0.92029132  0.84044111  0.29506359  1
  Li  Li49  1  0.58225162  0.14851885  0.29666753  1
  Li  Li50  1  0.41772360  0.64052021  0.29953920  1
  Li  Li51  1  0.07995560  0.34296891  0.28858769  1
  Li  Li52  1  0.85745976  0.40353311  0.29662734  1
  Li  Li53  1  0.58552449  0.57258507  0.30196359  1
  Li  Li54  1  0.08274048  0.91338456  0.30284544  1
  Li  Li55  1  0.41046042  0.07958551  0.30172279  1
  Li  Li56  1  0.87067491  0.91708839  0.32277327  1
  Li  Li57  1  0.56208739  0.07723154  0.32299364  1
  Li  Li58  1  0.16697635  0.43144638  0.32439164  1
  Li  Li59  1  0.34439610  0.55249518  0.32568975  1
  Li  Li60  1  0.54637011  0.64753511  0.32709895  1
  Li  Li61  1  0.99412098  0.36562596  0.31479082  1
  Li  Li62  1  0.04091523  0.82698563  0.32641260  1
  Li  Li63  1  0.39866920  0.17002614  0.32816112  1
  Li  Li64  1  0.65993708  0.92336928  0.33620142  1
  Li  Li65  1  0.79400241  0.07798648  0.33982723  1
  Li  Li66  1  0.15664441  0.58616570  0.34094493  1
  Li  Li67  1  0.34416069  0.36169334  0.34028790  1
  Li  Li68  1  0.88476627  0.23285571  0.34906996  1
  Li  Li69  1  0.64723948  0.73348082  0.34870691  1
  Li  Li70  1  0.36245619  0.21778500  0.35752834  1
  Li  Li71  1  0.13805466  0.74511454  0.34966747  1
  Li  Li72  1  0.31577134  0.03786325  0.36424302  1
  Li  Li73  1  0.23289517  0.88368176  0.35975145  1
  Li  Li74  1  0.80137959  0.38648933  0.35880268  1
  Li  Li75  1  0.72018997  0.56636802  0.36139192  1
  Li  Li76  1  0.43720500  0.35427111  0.37047503  1
  Li  Li77  1  0.07314527  0.62405648  0.36785392  1
  Li  Li78  1  0.94695068  0.12035626  0.36962012  1
  Li  Li79  1  0.60277437  0.84152257  0.36791159  1
  Li  Li80  1  0.33295974  0.88227157  0.38559964  1
  Li  Li81  1  0.04730242  0.85921388  0.37594822  1
  Li  Li82  1  0.61599765  0.43032113  0.37980938  1
  Li  Li83  1  0.89355586  0.54404021  0.38094401  1
  Li  Li84  1  0.11184988  1.01838007  0.42655370  1
  Li  Li85  1  0.07179673  0.01369025  0.46132829  1
  Li  Li86  1  0.24134092  0.15150449  0.51506430  1
  Li  Li87  1  0.17216627  -0.11040255  0.54956926  1
  Li  Li88  1  0.21872241  -0.01342498  0.58699547  1
  Li  Li89  1  0.13171182  0.08363423  0.61304610  1
  Li  Li90  1  0.04948512  -0.01291692  0.64654407  1
  Li  Li91  1  0.04968198  0.05403437  0.68073206  1
  Li  Li92  1  0.11918179  0.20721399  0.71798096  1
  Li  Li93  1  0.16647181  0.86301102  0.40488186  1
  Li  Li94  1  0.99953674  0.15520502  0.43315530  1
  Li  Li95  1  0.12892057  0.21028291  0.48774259  1
  Li  Li96  1  0.23289258  0.34330540  0.50597790  1
  Li  Li97  1  0.06666290  0.10574837  0.53057211  1
  Li  Li98  1  0.20600446  0.17559899  0.57888825  1
  Li  Li99  1  0.14882016  0.26414566  0.60973327  1
  Li  Li100  1  0.21233432  0.13144849  0.66403035  1
  Li  Li101  1  0.07751802  0.23788332  0.67997709  1
  Li  Li102  1  0.19688773  0.20046828  0.75119922  1
  Li  Li103  1  0.14566279  -0.00479850  0.37844405  1
  Li  Li104  1  1.05249371  0.34165014  0.45679918  1
  Li  Li105  1  0.04218599  0.37522339  0.49263693  1
  Li  Li106  1  0.25507820  0.51466528  0.49264875  1
  Li  Li107  1  0.23410723  0.26096647  0.54519242  1
  Li  Li108  1  0.22583205  0.35771396  0.57602431  1
  Li  Li109  1  0.14677040  0.44088613  0.60601340  1
  Li  Li110  1  0.23584497  0.32119930  0.66224409  1
  Li  Li111  1  0.00179830  0.35137445  0.70471239  1
  Li  Li112  1  0.09345686  0.52392805  0.70793326  1
  Li  Li113  1  0.09542518  0.18258441  0.39931481  1
  Li  Li114  1  -0.07888908  0.49112578  0.45217476  1
  Li  Li115  1  0.08241211  0.52281748  0.47196690  1
  Li  Li116  1  0.10730663  0.52221945  0.51194305  1
  Li  Li117  1  0.08423587  0.41224874  0.55219589  1
  Li  Li118  1  0.13254613  0.53103518  0.57732115  1
  Li  Li119  1  -0.00007582  0.59558716  0.61660191  1
  Li  Li120  1  0.10423734  0.45341622  0.67357276  1
  Li  Li121  1  -0.01437233  0.71080984  0.69911284  1
  Li  Li122  1  0.15763365  0.71381705  0.75029237  1
  Li  Li123  1  0.04067118  0.34009783  0.42254815  1
  Li  Li124  1  0.97178431  0.66116742  0.43647180  1
  Li  Li125  1  0.04037022  0.68338980  0.49117769  1
  Li  Li126  1  0.13992278  0.76053145  0.51984481  1
  Li  Li127  1  0.13603777  0.59265856  0.54352229  1
  Li  Li128  1  0.19382170  0.61889923  0.60592931  1
  Li  Li129  1  0.09394022  0.74354185  0.62091047  1
  Li  Li130  1  0.14228822  0.64937421  0.67869986  1
  Li  Li131  1  0.04541586  0.79827309  0.72630515  1
  Li  Li132  1  0.24794129  0.85314974  0.76883656  1
  Li  Li133  1  0.07372720  0.53429580  0.39862713  1
  Li  Li134  1  1.01599523  0.84316845  0.42906571  1
  Li  Li135  1  0.15379267  0.86595400  0.48273168  1
  Li  Li136  1  0.18837791  0.95802757  0.51709653  1
  Li  Li137  1  0.03625949  0.75184014  0.55162550  1
  Li  Li138  1  0.11428979  0.83960218  0.58366633  1
  Li  Li139  1  0.00790079  0.93648171  0.60394209  1
  Li  Li140  1  0.11146783  0.81015733  0.65784661  1
  Li  Li141  1  0.11897982  0.85073068  0.69617634  1
  Li  Li142  1  0.10012783  0.90716097  0.74940784  1
  Li  Li143  1  0.00013157  0.72049755  0.40236277  1
  Li  Li144  1  0.18069898  0.87317043  0.44742787  1
  Li  Li145  1  0.23577395  0.04671144  0.47965054  1
  Li  Li146  1  0.36865962  -0.01868510  0.53293387  1
  Li  Li147  1  0.31640576  -0.15478967  0.56802812  1
  Li  Li148  1  0.33358544  -0.03827537  0.61412519  1
  Li  Li149  1  0.23493701  0.03811168  0.63825742  1
  Li  Li150  1  0.18815502  -0.04334828  0.67075824  1
  Li  Li151  1  0.11908127  0.01265198  0.71181273  1
  Li  Li152  1  0.25706196  0.04446211  0.73267975  1
  Li  Li153  1  0.26921866  0.04589863  0.40725891  1
  Li  Li154  1  0.16897491  0.18176473  0.45467897  1
  Li  Li155  1  0.32587128  0.22077041  0.48512259  1
  Li  Li156  1  0.39612412  0.15876950  0.53717786  1
  Li  Li157  1  0.22781773  0.07122463  0.55053048  1
  Li  Li158  1  0.32489537  0.12853244  0.60430862  1
  Li  Li159  1  0.26660331  0.21917664  0.63378433  1
  Li  Li160  1  0.38318495  0.20560740  0.66840711  1
  Li  Li161  1  0.25809470  0.14413617  0.69535297  1
  Li  Li162  1  0.30435245  0.22948143  0.72546443  1
  Li  Li163  1  0.41832457  0.13161667  0.38927955  1
  Li  Li164  1  0.22117286  0.37709330  0.43853059  1
  Li  Li165  1  0.22260460  0.36969668  0.47125942  1
  Li  Li166  1  0.39274174  0.33558294  0.52292528  1
  Li  Li167  1  0.40453476  0.19666634  0.57309034  1
  Li  Li168  1  0.33991116  0.30596866  0.60261027  1
  Li  Li169  1  0.28787850  0.40340113  0.63045305  1
  Li  Li170  1  0.36284543  0.37862634  0.68452557  1
  Li  Li171  1  0.20336944  0.34734499  0.69848946  1
  Li  Li172  1  0.30994521  0.35951139  0.75309116  1
  Li  Li173  1  0.27545483  0.26476906  0.38661680  1
  Li  Li174  1  0.09602269  0.51679130  0.43472406  1
  Li  Li175  1  0.25323201  0.54915652  0.45617805  1
  Li  Li176  1  0.28556080  0.61838359  0.52551527  1
  Li  Li177  1  0.24889687  0.44268578  0.53401598  1
  Li  Li178  1  0.33696697  0.48347225  0.59695472  1
  Li  Li179  1  0.14579869  0.52838171  0.63659317  1
  Li  Li180  1  0.26273852  0.51219098  0.66234108  1
  Li  Li181  1  0.28045211  0.54355956  0.69738194  1
  Li  Li182  1  0.19758644  0.69924686  0.71202525  1
  Li  Li183  1  0.18716031  0.37817493  0.40617504  1
  Li  Li184  1  0.17947531  0.69217479  0.42508214  1
  Li  Li185  1  0.22621150  0.69009635  0.48991849  1
  Li  Li186  1  0.39479841  0.70168788  0.50410274  1
  Li  Li187  1  0.29391898  0.52482931  0.56365257  1
  Li  Li188  1  0.34816713  0.66835032  0.58891951  1
  Li  Li189  1  0.24234180  0.69309815  0.64364725  1
  Li  Li190  1  0.36193269  0.65160167  0.67097697  1
  Li  Li191  1  0.24733890  0.85618407  0.72894601  1
  Li  Li192  1  0.34879908  0.71594459  0.74297453  1
  Li  Li193  1  0.20443843  0.72793148  0.38152547  1
  Li  Li194  1  0.11748390  0.69621663  0.45847572  1
  Li  Li195  1  0.32112896  0.86748295  0.49775330  1
  Li  Li196  1  0.31773824  0.80004692  0.53228234  1
  Li  Li197  1  0.20443594  0.70331267  0.56604574  1
  Li  Li198  1  0.25513513  0.79906132  0.60368627  1
  Li  Li199  1  0.14779871  0.90561172  0.62320617  1
  Li  Li200  1  0.27899468  0.79859917  0.67996639  1
  Li  Li201  1  0.29339718  0.95550776  0.70038260  1
  Li  Li202  1  0.38874864  0.94348025  0.75117829  1
  Li  Li203  1  0.32525077  0.84411180  0.42628720  1
  Li  Li204  1  0.29085895  0.03852391  0.44226347  1
  Li  Li205  1  0.39059806  0.04987908  0.50011196  1
  Li  Li206  1  0.54704087  0.06013682  0.51939287  1
  Li  Li207  1  0.48119339  -0.13002935  0.55047281  1
  Li  Li208  1  0.49726952  0.04168260  0.59733418  1
  Li  Li209  1  0.41202882  0.10179130  0.63620523  1
  Li  Li210  1  0.35932046  -0.00524692  0.66321178  1
  Li  Li211  1  0.43608321  0.05647909  0.68957515  1
  Li  Li212  1  0.44816538  0.08602384  0.72381706  1
  Li  Li213  1  0.45321629  0.96158647  0.41402325  1
  Li  Li214  1  0.22580113  0.20726307  0.42305353  1
  Li  Li215  1  0.43049888  0.10788540  0.46554316  1
  Li  Li216  1  0.69898971  0.21281021  0.51598846  1
  Li  Li217  1  0.38331089  0.01529361  0.56963751  1
  Li  Li218  1  0.50330217  0.22348205  0.60992838  1
  Li  Li219  1  0.45338881  0.29267709  0.63911566  1
  Li  Li220  1  0.55126328  0.14777830  0.65980639  1
  Li  Li221  1  0.44065458  0.24506562  0.70181465  1
  Li  Li222  1  0.47994029  0.26813009  0.73646027  1
  Li  Li223  1  0.58187038  0.08490381  0.37985529  1
  Li  Li224  1  0.35198060  0.26083967  0.45067356  1
  Li  Li225  1  0.48798556  0.22494041  0.50377231  1
  Li  Li226  1  0.59203331  0.42343416  0.55556662  1
  Li  Li227  1  0.55053197  0.25385490  0.54331112  1
  Li  Li228  1  0.50639440  0.36260266  0.58637690  1
  Li  Li229  1  0.49651419  0.45126198  0.61902314  1
  Li  Li230  1  0.54907078  0.32630117  0.67424530  1
  Li  Li231  1  0.34723352  0.41042465  0.72025533  1
  Li  Li232  1  0.36144864  0.53661266  0.76335950  1
  Li  Li233  1  0.38304770  0.32608567  0.41475065  1
  Li  Li234  1  0.27854237  0.52165588  0.41736468  1
  Li  Li235  1  0.40675052  0.39705133  0.48323609  1
  Li  Li236  1  0.42915323  0.51448901  0.50951756  1
  Li  Li237  1  0.39683961  0.35969408  0.55816455  1
  Li  Li238  1  0.48214650  0.54353371  0.57601865  1
  Li  Li239  1  0.34938657  0.58011647  0.62700877  1
  Li  Li240  1  0.42484437  0.44752670  0.65491652  1
  Li  Li241  1  0.46602509  0.52331233  0.68705388  1
  Li  Li242  1  0.43035992  0.57716297  0.72564062  1
  Li  Li243  1  0.45067127  0.48566037  0.39873954  1
  Li  Li244  1  0.38414352  0.64409238  0.43664294  1
  Li  Li245  1  0.41255247  0.58836972  0.47507200  1
  Li  Li246  1  0.56988338  0.65945684  0.49959490  1
  Li  Li247  1  0.44181774  0.51611228  0.54109711  1
  Li  Li248  1  0.51806783  0.73883284  0.57493190  1
  Li  Li249  1  0.40504638  0.76172493  0.62322571  1
  Li  Li250  1  0.49531488  0.61618868  0.64812457  1
  Li  Li251  1  0.39518941  0.71898495  0.70659683  1
  Li  Li252  1  0.53759493  0.77122536  0.73821486  1
  Li  Li253  1  0.35213789  0.67790889  0.40340625  1
  Li  Li254  1  0.31247672  0.74304287  0.46077801  1
  Li  Li255  1  0.35753544  0.91732786  0.46507459  1
  Li  Li256  1  0.49383830  0.86684257  0.51307395  1
  Li  Li257  1  0.38230703  0.67606033  0.55502374  1
  Li  Li258  1  0.43164618  0.86376717  0.59285284  1
  Li  Li259  1  0.28597144  0.86681105  0.64384082  1
  Li  Li260  1  0.44242882  0.80381314  0.65724656  1
  Li  Li261  1  0.46133740  0.86357706  0.68776598  1
  Li  Li262  1  0.43944536  0.89359359  0.71950252  1
  Li  Li263  1  0.51367549  0.76251061  0.40347475  1
  Li  Li264  1  0.51334128  0.97192849  0.44641740  1
  Li  Li265  1  0.53504486  -0.03735374  0.48218846  1
  Li  Li266  1  0.72551931  0.06998045  0.53627313  1
  Li  Li267  1  0.59943358  -0.07586066  0.57473175  1
  Li  Li268  1  0.68547755  0.00778760  0.60428760  1
  Li  Li269  1  0.58896806  0.10026573  0.62747617  1
  Li  Li270  1  0.53936869  -0.02634827  0.66231595  1
  Li  Li271  1  0.60600571  -0.02763650  0.70209638  1
  Li  Li272  1  0.64317343  0.14782050  0.73097920  1
  Li  Li273  1  0.62266458  0.92763694  0.39830485  1
  Li  Li274  1  0.42576272  0.14052656  0.42585913  1
  Li  Li275  1  0.60152824  0.13964046  0.48403921  1
  Li  Li276  1  0.67106117  0.33337718  0.48841318  1
  Li  Li277  1  0.55033228  0.06809965  0.55408861  1
  Li  Li278  1  0.60005381  0.18584380  0.58137585  1
  Li  Li279  1  0.64967171  0.27127838  0.64153008  1
  Li  Li280  1  0.73012278  0.18164723  0.67128379  1
  Li  Li281  1  0.58785531  0.14633950  0.69374180  1
  Li  Li282  1  0.64084082  0.32479109  0.75186323  1
  Li  Li283  1  0.60773369  0.09713034  0.41581529  1
  Li  Li284  1  0.53740061  0.27741698  0.43596180  1
  Li  Li285  1  0.51863457  0.28741556  0.46913711  1
  Li  Li286  1  0.58000365  0.38042090  0.51641286  1
  Li  Li287  1  0.72656789  0.22745666  0.55227036  1
  Li  Li288  1  0.65443280  0.34497126  0.61259509  1
  Li  Li289  1  0.61457454  0.45697292  0.64948290  1
  Li  Li290  1  0.74931659  0.35496913  0.66768809  1
  Li  Li291  1  0.53274622  0.41046508  0.71235533  1
  Li  Li292  1  0.71372575  0.46150018  0.72787508  1
  Li  Li293  1  0.56873836  0.26298998  0.39933142  1
  Li  Li294  1  0.41111379  0.44998344  0.44332162  1
  Li  Li295  1  0.57807339  0.49527254  0.48658263  1
  Li  Li296  1  0.60955969  0.54627175  0.52683536  1
  Li  Li297  1  0.70021115  0.33816555  0.57757269  1
  Li  Li298  1  0.64321486  0.50158285  0.59461646  1
  Li  Li299  1  0.51099163  0.64217075  0.60693918  1
  Li  Li300  1  0.64751667  0.49357521  0.68554282  1
  Li  Li301  1  0.60205095  0.60077353  0.71460077  1
  Li  Li302  1  0.69074866  0.51086958  0.76289204  1
  Li  Li303  1  0.59029954  0.41571293  0.41871709  1
  Li  Li304  1  0.54792893  0.59850223  0.42343569  1
  Li  Li305  1  0.48456414  0.78131546  0.47650100  1
  Li  Li306  1  0.69120873  0.72608589  0.52366604  1
  Li  Li307  1  0.62876588  0.60957286  0.55782399  1
  Li  Li308  1  0.68047695  0.68683839  0.58981060  1
  Li  Li309  1  0.59044292  0.76893846  0.63865239  1
  Li  Li310  1  0.68294313  0.64691778  0.65937761  1
  Li  Li311  1  0.54537241  0.68278244  0.68398697  1
  Li  Li312  1  0.61287476  0.80389791  0.77079071  1
  Li  Li313  1  0.53110173  0.61000364  0.37786344  1
  Li  Li314  1  0.49622832  0.79817991  0.43813580  1
  Li  Li315  1  0.65546342  0.83075594  0.49543975  1
  Li  Li316  1  0.64097640  0.90537576  0.53320269  1
  Li  Li317  1  0.51127404  0.70420852  0.53324613  1
  Li  Li318  1  0.59683340  0.83769453  0.60661717  1
  Li  Li319  1  0.48682282  0.93223266  0.63064237  1
  Li  Li320  1  0.63197798  0.82390310  0.67239129  1
  Li  Li321  1  0.63380803  0.79222923  0.71034004  1
  Li  Li322  1  0.71975053  0.99611397  0.76201996  1
  Li  Li323  1  0.67057431  0.75828253  0.42248396  1
  Li  Li324  1  0.71768052  -0.00823029  0.46639051  1
  Li  Li325  1  0.70831096  0.01256205  0.50149632  1
  Li  Li326  1  0.88394369  0.05900351  0.51707159  1
  Li  Li327  1  0.80225830  -0.07274175  0.55303694  1
  Li  Li328  1  0.87201056  0.02907635  0.58930338  1
  Li  Li329  1  0.76094572  0.10987013  0.64004784  1
  Li  Li330  1  0.70978573  0.00399864  0.67204756  1
  Li  Li331  1  0.75990189  -0.04337458  0.72313221  1
  Li  Li332  1  0.84735679  0.10676438  0.74058078  1
  Li  Li333  1  0.69249579  0.94559091  0.43258005  1
  Li  Li334  1  0.61307862  0.12833928  0.44962553  1
  Li  Li335  1  0.78777358  0.17175415  0.48357475  1
  Li  Li336  1  0.88889318  0.23986708  0.53403706  1
  Li  Li337  1  0.72595240  0.06771735  0.57168775  1
  Li  Li338  1  0.75331380  0.18426835  0.60725109  1
  Li  Li339  1  0.85027510  0.28915644  0.63842835  1
  Li  Li340  1  0.91947955  0.15869220  0.66127895  1
  Li  Li341  1  0.75715442  0.11252606  0.70594415  1
  Li  Li342  1  0.81070959  0.27845423  0.72545909  1
  Li  Li343  1  0.80915531  0.06967457  0.41431094  1
  Li  Li344  1  0.72124643  0.24562584  0.42199398  1
  Li  Li345  1  0.70657672  0.29896952  0.45620173  1
  Li  Li346  1  0.83403747  0.35197599  0.50578512  1
  Li  Li347  1  0.85803296  0.21935022  0.57848840  1
  Li  Li348  1  0.82898447  0.38077301  0.59899458  1
  Li  Li349  1  0.78461692  0.45760443  0.63124523  1
  Li  Li350  1  0.94017595  0.35308036  0.66808193  1
  Li  Li351  1  0.66751853  0.30203934  0.70275428  1
  Li  Li352  1  0.82915352  0.37922972  0.75251518  1
  Li  Li353  1  0.77038599  0.19036704  0.38359619  1
  Li  Li354  1  0.58613251  0.45534693  0.45388576  1
  Li  Li355  1  0.75812794  0.48557132  0.47100915  1
  Li  Li356  1  0.74522489  0.52773601  0.50538395  1
  Li  Li357  1  0.74543082  0.39889199  0.53598919  1
  Li  Li358  1  0.77743194  0.51120084  0.56973578  1
  Li  Li359  1  0.65689620  0.59571783  0.62549223  1
  Li  Li360  1  0.80611334  0.52375410  0.66518256  1
  Li  Li361  1  0.86713848  0.58376957  0.71703182  1
  Li  Li362  1  0.86889521  0.56992231  0.75235675  1
  Li  Li363  1  0.77925055  0.38164124  0.40079432  1
  Li  Li364  1  0.55966128  0.64086598  0.45674872  1
  Li  Li365  1  0.71170275  0.66472550  0.47860303  1
  Li  Li366  1  0.84320596  0.70170137  0.50300344  1
  Li  Li367  1  0.79827601  0.58617018  0.53775774  1
  Li  Li368  1  0.84748909  0.69141174  0.57222000  1
  Li  Li369  1  0.75123967  0.76195925  0.62022178  1
  Li  Li370  1  0.84955423  0.64333695  0.63748190  1
  Li  Li371  1  0.75522936  0.65974955  0.69276535  1
  Li  Li372  1  0.77915870  0.70440900  0.77296223  1
  Li  Li373  1  0.69762180  0.56374489  0.40406788  1
  Li  Li374  1  0.65172647  0.81675336  0.45913195  1
  Li  Li375  1  0.82097170  0.83795730  0.47922485  1
  Li  Li376  1  0.81219805  0.88370746  0.51646264  1
  Li  Li377  1  0.68681357  0.77826063  0.55738737  1
  Li  Li378  1  0.76869545  0.85983029  0.58694817  1
  Li  Li379  1  0.67723407  0.93875306  0.63852926  1
  Li  Li380  1  0.78436838  0.81217638  0.65460865  1
  Li  Li381  1  0.84667945  0.77122750  0.72154860  1
  Li  Li382  1  0.79505905  0.85603212  0.69076556  1
  Li  Li383  1  0.73933563  0.74492220  0.38549268  1
  Li  Li384  1  0.90130603  0.97810551  0.44321814  1
  Li  Li385  1  0.89634623  0.00757840  0.48167348  1
  Li  Li386  1  0.06027776  0.03791112  0.49740456  1
  Li  Li387  1  0.99261337  -0.07548322  0.53552574  1
  Li  Li388  1  0.06265844  0.01174571  0.56633798  1
  Li  Li389  1  0.92741501  0.07789270  0.62352078  1
  Li  Li390  1  -0.12911300  -0.02386295  0.65322464  1
  Li  Li391  1  0.87142358  0.03439920  0.68671151  1
  Li  Li392  1  -0.04486978  0.13861661  0.71127328  1
  Li  Li393  1  0.83971724  0.86354691  0.41124709  1
  Li  Li394  1  0.80840809  0.13788814  0.44790953  1
  Li  Li395  1  0.97137757  0.17277325  0.46737311  1
  Li  Li396  1  0.95375808  0.20389997  0.50166119  1
  Li  Li397  1  0.90159518  0.08568778  0.55449825  1
  Li  Li398  1  0.02225227  0.13480157  0.58889729  1
  Li  Li399  1  0.95352615  0.24372463  0.61258548  1
  Li  Li400  1  0.06828945  0.17529680  0.64180435  1
  Li  Li401  1  0.86109629  0.24695719  0.69110914  1
  Li  Li402  1  -0.01814180  0.25330551  0.74286637  1
  Li  Li403  1  0.98182007  0.00477662  0.39935223  1
  Li  Li404  1  0.87971270  0.31288946  0.43870125  1
  Li  Li405  1  0.87898774  0.33822760  0.47349807  1
  Li  Li406  1  0.07413445  0.30112470  0.52398402  1
  Li  Li407  1  1.04772161  0.22112643  0.55750728  1
  Li  Li408  1  0.03116060  0.33320532  0.58443559  1
  Li  Li409  1  0.97147527  0.42074643  0.61847545  1
  Li  Li410  1  0.08571491  0.35006918  0.64239332  1
  Li  Li411  1  0.82007794  0.43112454  0.69901521  1
  Li  Li412  1  -0.03862732  0.43532567  0.73262118  1
  Li  Li413  1  0.90698262  0.23653820  0.40673377  1
  Li  Li414  1  0.74915052  0.44968394  0.43373028  1
  Li  Li415  1  0.91901273  0.52296804  0.49287352  1
  Li  Li416  1  0.94092543  0.45194687  0.52726138  1
  Li  Li417  1  0.89234291  0.37358461  0.55954751  1
  Li  Li418  1  -0.04166532  0.50180106  0.58621128  1
  Li  Li419  1  0.82158267  0.58278321  0.60384755  1
  Li  Li420  1  -0.04160823  0.49101557  0.64827937  1
  Li  Li421  1  0.95398097  0.53851451  0.68453000  1
  Li  Li422  1  0.03566110  0.60973068  0.73596850  1
  Li  Li423  1  -0.00426028  0.37382484  0.38182419  1
  Li  Li424  1  0.74486994  0.61956391  0.44389929  1
  Li  Li425  1  0.89733385  0.66096914  0.46828543  1
  Li  Li426  1  -0.02381774  0.64681803  0.52327382  1
  Li  Li427  1  0.96296598  0.56948657  0.55587394  1
  Li  Li428  1  0.03638141  0.67726842  0.58461485  1
  Li  Li429  1  0.91707346  0.76498931  0.60363040  1
  Li  Li430  1  0.03931708  0.64762173  0.65075505  1
  Li  Li431  1  0.89765508  0.70020004  0.66954070  1
  Li  Li432  1  0.06770757  0.79429781  0.77903334  1
  Li  Li433  1  0.91392609  0.48855716  0.41718195  1
  Li  Li434  1  0.82948565  0.79623754  0.44435315  1
  Li  Li435  1  0.99059242  0.83623804  0.46473794  1
  Li  Li436  1  0.98683364  0.85497067  0.50312833  1
  Li  Li437  1  0.86284914  0.76572825  0.54005533  1
  Li  Li438  1  -0.05996405  0.86812740  0.57216962  1
  Li  Li439  1  0.83160835  0.92582707  0.61924298  1
  Li  Li440  1  -0.04702121  0.81832664  0.63758629  1
  Li  Li441  1  0.96902431  0.87329310  0.67689371  1
  Li  Li442  1  -0.05313925  0.94307075  0.71412178  1
  Li  Li443  1  0.83703855  0.66438829  0.41411452  1
  Li  Li444  1  -0.03198804  0.08665595  0.81102712  1
  Li  Li445  1  0.08035602  0.12829135  0.84065241  1
  Li  Li446  1  0.14921313  0.22710260  0.89222036  1
  Li  Li447  1  0.02305820  0.07207193  0.95262486  1
  Li  Li448  1  0.12257942  0.18801067  0.97608251  1
  Li  Li449  1  0.02891091  -0.03356803  0.78044740  1
  Li  Li450  1  0.05471364  0.24216998  0.79914475  1
  Li  Li451  1  0.11637706  0.32078448  0.85946597  1
  Li  Li452  1  0.12587670  0.41899992  0.89472380  1
  Li  Li453  1  0.07351431  0.22290018  0.92502460  1
  Li  Li454  1  0.22110203  0.36725124  0.99221369  1
  Li  Li455  1  0.05920319  0.13775470  0.77283529  1
  Li  Li456  1  0.07846799  0.41095525  0.80125819  1
  Li  Li457  1  0.03546745  0.44482393  0.83618039  1
  Li  Li458  1  0.27822263  0.54636771  0.89890260  1
  Li  Li459  1  0.11329497  0.36156442  0.95795198  1
  Li  Li460  1  0.23706747  0.50528637  0.96328036  1
  Li  Li461  1  0.14862795  0.38381637  0.73284447  1
  Li  Li462  1  -0.01522379  0.56457049  0.81017003  1
  Li  Li463  1  0.15488876  0.67181616  0.87336092  1
  Li  Li464  1  0.19550689  0.74859614  0.90676420  1
  Li  Li465  1  0.06836967  0.59810081  0.90369973  1
  Li  Li466  1  0.18673096  0.70148798  0.96429443  1
  Li  Li467  1  0.15643442  0.50711467  0.76343731  1
  Li  Li468  1  0.10357484  0.73262605  0.81171640  1
  Li  Li469  1  0.03970491  0.80921176  0.84759901  1
  Li  Li470  1  0.04807829  0.82801381  0.88549918  1
  Li  Li471  1  0.07070776  0.72175279  0.93474994  1
  Li  Li472  1  0.07746746  0.88145301  0.95740723  1
  Li  Li473  1  0.01708564  0.62305092  0.77606666  1
  Li  Li474  1  -0.02245508  0.89200353  0.81218654  1
  Li  Li475  1  0.05895034  0.98658926  0.86652914  1
  Li  Li476  1  -0.01990350  1.07689138  0.90370141  1
  Li  Li477  1  0.05917278  0.89200172  0.91794880  1
  Li  Li478  1  0.07778926  0.99357651  0.99194933  1
  Li  Li479  1  0.13131805  0.95857367  0.83139697  1
  Li  Li480  1  0.15477637  0.08008012  0.80361179  1
  Li  Li481  1  0.24149557  0.16316316  0.86286232  1
  Li  Li482  1  0.44541083  0.20304814  0.87991861  1
  Li  Li483  1  0.30299009  0.16289365  0.91137264  1
  Li  Li484  1  0.26558161  0.14458316  1.00072379  1
  Li  Li485  1  0.21105996  0.02871819  0.76795342  1
  Li  Li486  1  0.18952154  0.25820129  0.82444163  1
  Li  Li487  1  0.32206954  0.32851129  0.85173946  1
  Li  Li488  1  0.32007585  0.35308688  0.88767279  1
  Li  Li489  1  0.23563925  0.18397785  0.94685085  1
  Li  Li490  1  0.33244991  0.32625284  0.96070640  1
  Li  Li491  1  0.26553820  0.19363517  0.78688222  1
  Li  Li492  1  0.21958834  0.44279848  0.82580742  1
  Li  Li493  1  0.22394452  0.48896542  0.86283585  1
  Li  Li494  1  0.49012922  0.54455106  0.90562640  1
  Li  Li495  1  0.23319839  0.36012015  0.92485906  1
  Li  Li496  1  0.24821652  0.60067025  0.99477081  1
  Li  Li497  1  0.24290277  0.37353553  0.78701226  1
  Li  Li498  1  0.12621772  0.61357176  0.83967381  1
  Li  Li499  1  0.32617757  0.65553696  0.85510723  1
  Li  Li500  1  0.36953873  0.71270833  0.88823477  1
  Li  Li501  1  0.19910541  0.57219091  0.93131452  1
  Li  Li502  1  0.37505431  0.66228884  0.95845501  1
  Li  Li503  1  0.16803943  0.56266441  0.79793432  1
  Li  Li504  1  0.23311112  0.79680418  0.83821239  1
  Li  Li505  1  0.23735787  0.85637328  0.87455051  1
  Li  Li506  1  0.31128955  0.91166182  0.90937874  1
  Li  Li507  1  0.24690850  0.83387120  0.94013206  1
  Li  Li508  1  0.21193763  0.82138580  0.99084136  1
  Li  Li509  1  0.25175483  0.67045969  0.77764646  1
  Li  Li510  1  0.17741527  0.90538785  0.80087233  1
  Li  Li511  1  0.27742709  0.99563018  0.85199895  1
  Li  Li512  1  0.17072799  1.02878909  0.89254778  1
  Li  Li513  1  0.16925275  1.02821512  0.92942946  1
  Li  Li514  1  0.22710655  1.00424120  0.96768402  1
  Li  Li515  1  0.30261295  0.78204176  0.80150828  1
  Li  Li516  1  0.31491846  0.10282597  0.82260323  1
  Li  Li517  1  0.44786434  0.19212343  0.84110664  1
  Li  Li518  1  0.62446418  0.21237622  0.90719903  1
  Li  Li519  1  0.46646730  0.19395528  0.94177653  1
  Li  Li520  1  0.38554292  0.12662792  0.97222307  1
  Li  Li521  1  0.35243114  -0.01520802  0.79087593  1
  Li  Li522  1  0.37503691  0.30822551  0.81299677  1
  Li  Li523  1  0.51749959  0.37561142  0.85551311  1
  Li  Li524  1  0.55105873  0.36331922  0.88823573  1
  Li  Li525  1  0.43677340  0.31756788  0.91681525  1
  Li  Li526  1  0.44085206  0.28774672  0.99197852  1
  Li  Li527  1  0.37749322  0.13072784  0.75919450  1
  Li  Li528  1  0.36125854  0.48887285  0.79840637  1
  Li  Li529  1  0.39815219  0.48983341  0.83727503  1
  Li  Li530  1  0.61078114  0.41395652  0.92250213  1
  Li  Li531  1  0.38299829  0.48233613  0.93614872  1
  Li  Li532  1  0.42923822  0.49883987  0.97881981  1
  Li  Li533  1  0.43932948  0.30370058  0.77511166  1
  Li  Li534  1  0.29476207  0.62322282  0.82011300  1
  Li  Li535  1  0.42367475  0.51514869  0.87320326  1
  Li  Li536  1  0.56056759  0.71278352  0.87789365  1
  Li  Li537  1  0.37071474  0.68768080  0.92362455  1
  Li  Li538  1  0.42943954  0.71735395  0.99249029  1
  Li  Li539  1  0.23971909  0.55499408  0.73366274  1
  Li  Li540  1  0.43444042  0.73501536  0.82759992  1
  Li  Li541  1  0.41697883  0.83381475  0.85853192  1
  Li  Li542  1  0.48013997  0.88081072  0.89123259  1
  Li  Li543  1  0.46479482  0.85702695  0.93389610  1
  Li  Li544  1  0.37132874  0.85893272  0.96715246  1
  Li  Li545  1  0.44356230  0.65471173  0.79078696  1
  Li  Li546  1  0.37191684  0.92027719  0.82464927  1
  Li  Li547  1  0.36619930  1.02989969  0.88195467  1
  Li  Li548  1  0.47626281  1.06497193  0.91178178  1
  Li  Li549  1  0.36575068  1.01959781  0.94078141  1
  Li  Li550  1  0.36787645  0.95660700  0.99733566  1
  Li  Li551  1  0.42738623  0.79169607  0.76924049  1
  Li  Li552  1  0.55256231  -0.00686994  0.81856588  1
  Li  Li553  1  0.62615378  0.19449540  0.86063484  1
  Li  Li554  1  0.95533805  0.31762817  0.89704480  1
  Li  Li555  1  0.62720014  0.07520328  0.93690824  1
  Li  Li556  1  0.52873826  0.09344346  1.00062891  1
  Li  Li557  1  0.52866796  -0.02578201  0.77630603  1
  Li  Li558  1  0.46657726  0.14284154  0.79884807  1
  Li  Li559  1  0.63044673  0.16395861  0.82526028  1
  Li  Li560  1  0.68525698  0.26650805  0.94073661  1
  Li  Li561  1  0.60072280  0.18885928  0.97045845  1
  Li  Li562  1  0.61965976  0.39108623  0.98649553  1
  Li  Li563  1  0.56054196  0.14730409  0.76278827  1
  Li  Li564  1  0.55015460  0.35650048  0.82221004  1
  Li  Li565  1  0.71288175  0.36190672  0.85981596  1
  Li  Li566  1  0.63772378  0.53175509  0.87799756  1
  Li  Li567  1  0.52872719  0.37328894  0.95497426  1
  Li  Li568  1  0.71619952  0.47675509  0.95491517  1
  Li  Li569  1  0.54152442  0.45530094  0.78349324  1
  Li  Li570  1  0.52340765  0.55125596  0.81558732  1
  Li  Li571  1  0.65843665  0.51207395  0.83971094  1
  Li  Li572  1  0.57157957  0.72544192  0.91380055  1
  Li  Li573  1  0.54589557  0.58395772  0.94346847  1
  Li  Li574  1  0.62616290  0.60661653  0.98100782  1
  Li  Li575  1  0.51260386  0.45288629  0.74684148  1
  Li  Li576  1  0.52222826  0.63004857  0.84937223  1
  Li  Li577  1  0.59806473  0.84469433  0.84342953  1
  Li  Li578  1  0.68037157  0.87605503  0.88036842  1
  Li  Li579  1  0.55708494  0.77302558  0.96148088  1
  Li  Li580  1  0.57034046  0.87590375  0.99360154  1
  Li  Li581  1  0.53906228  0.62980369  0.75827977  1
  Li  Li582  1  0.49532770  0.83725719  0.80047025  1
  Li  Li583  1  0.49283561  1.01893219  0.85376008  1
  Li  Li584  1  0.60626075  1.05416290  0.88392021  1
  Li  Li585  1  0.61606825  0.92245650  0.91546931  1
  Li  Li586  1  0.52593176  0.99048282  0.96425358  1
  Li  Li587  1  0.57979836  0.96391169  0.74045916  1
  Li  Li588  1  0.66797440  0.07953974  0.79134657  1
  Li  Li589  1  0.78892038  0.20413978  0.88330910  1
  Li  Li590  1  0.84543999  0.20005774  0.92052369  1
  Li  Li591  1  0.80126810  0.10359549  0.95337098  1
  Li  Li592  1  0.72319297  0.21950728  1.00224556  1
  Li  Li593  1  0.87492405  0.07310730  0.77925144  1
  Li  Li594  1  0.61318866  0.26898661  0.79274440  1
  Li  Li595  1  0.74694149  0.31912785  0.82715512  1
  Li  Li596  1  0.75006823  0.38306541  0.89460674  1
  Li  Li597  1  0.78379449  0.29310079  0.97072371  1
  Li  Li598  1  0.91590116  0.43512318  0.96090033  1
  Li  Li599  1  0.74911307  0.19344632  0.76419786  1
  Li  Li600  1  0.69527243  0.46449788  0.80597274  1
  Li  Li601  1  0.82136347  0.53007178  0.86456839  1
  Li  Li602  1  0.88993860  0.52000970  0.89836956  1
  Li  Li603  1  0.82847842  0.39204818  0.92800300  1
  Li  Li604  1  0.81386505  0.45579452  0.99462171  1
  Li  Li605  1  0.75533803  0.36087732  0.78177618  1
  Li  Li606  1  0.63651925  0.63445654  0.78928887  1
  Li  Li607  1  0.72486661  0.69149448  0.85240443  1
  Li  Li608  1  0.76054308  0.69642584  0.88848927  1
  Li  Li609  1  0.70931822  0.57390066  0.91498738  1
  Li  Li610  1  0.85335513  0.61284007  0.97265266  1
  Li  Li611  1  0.83910439  0.53960644  0.78672334  1
  Li  Li612  1  0.61837880  0.71860768  0.81900959  1
  Li  Li613  1  0.80573787  0.82376221  0.82801843  1
  Li  Li614  1  0.75894275  0.79973288  0.92020623  1
  Li  Li615  1  0.71592063  0.68542114  0.94753089  1
  Li  Li616  1  0.75757436  0.78889111  0.98129042  1
  Li  Li617  1  0.71112148  0.65563142  0.73910755  1
  Li  Li618  1  0.68840424  0.86838365  0.79998361  1
  Li  Li619  1  0.70164123  1.00457402  0.84879542  1
  Li  Li620  1  0.75971329  1.04137966  0.90862541  1
  Li  Li621  1  0.70762428  0.90385562  0.95101388  1
  Li  Li622  1  0.71481308  1.02355948  0.98354946  1
  Li  Li623  1  0.73166373  0.83062606  0.74674913  1
  Li  Li624  1  0.81148093  0.20333030  0.80348314  1
  Li  Li625  1  0.82471979  0.16759270  0.84485949  1
  Li  Li626  1  -0.00924904  0.16976431  0.87084443  1
  Li  Li627  1  0.88952866  -0.04032875  0.93312200  1
  Li  Li628  1  -0.09077545  0.13308299  0.98486748  1
  Li  Li629  1  0.90522851  -0.06549188  0.74931260  1
  Li  Li630  1  0.91752183  0.26126342  0.77550942  1
  Li  Li631  1  0.96625924  0.27368247  0.82969176  1
  Li  Li632  1  -0.09406719  0.34517230  0.86177897  1
  Li  Li633  1  0.94501738  0.25287153  0.95159122  1
  Li  Li634  1  -0.01600214  0.32021024  0.99004329  1
  Li  Li635  1  1.04719516  0.07219950  0.74205424  1
  Li  Li636  1  0.89663816  0.38062812  0.80381474  1
  Li  Li637  1  0.84932545  0.47325190  0.83209191  1
  Li  Li638  1  0.02085102  0.50446597  0.86888872  1
  Li  Li639  1  1.02903647  0.43449415  0.92718427  1
  Li  Li640  1  0.04471504  0.57596769  0.95591124  1
  Li  Li641  1  1.10543925  0.32438884  0.76691657  1
  Li  Li642  1  0.77472826  0.62797798  0.81625501  1
  Li  Li643  1  0.92568941  0.65730286  0.83897740  1
  Li  Li644  1  -0.05618359  0.67930518  0.87434207  1
  Li  Li645  1  0.88467402  0.58723160  0.93430342  1
  Li  Li646  1  0.04791243  0.52165281  0.98892612  1
  Li  Li647  1  0.97403247  0.44237599  0.77154294  1
  Li  Li648  1  0.90741505  0.73038188  0.79929065  1
  Li  Li649  1  0.85305770  0.84096242  0.86239082  1
  Li  Li650  1  -0.12483888  0.89452078  0.89676504  1
  Li  Li651  1  0.92832262  0.72447257  0.91007378  1
  Li  Li652  1  0.00428148  0.74576747  0.98317415  1
  Li  Li653  1  0.93331338  0.75350995  0.75368694  1
  Li  Li654  1  0.78631273  1.01399815  0.81584609  1
  Li  Li655  1  0.92170263  0.99172213  0.84176777  1
  Li  Li656  1  -0.16110420  1.03111477  0.87401771  1
  Li  Li657  1  0.89829114  0.77540785  0.94936810  1
  Li  Li658  1  -0.10344232  0.93633045  0.97218401  1
  Li  Li659  1  0.84560419  0.88274962  0.78149705  1
  La  La660  1  0.26368435  1.01405077  0.17813951  1
  La  La661  1  0.74439877  0.51999845  0.17994955  1
  La  La662  1  0.88657332  0.74454245  0.19593418  1
  La  La663  1  0.35230647  0.72708331  0.19145796  1
  La  La664  1  0.62729582  0.28828308  0.19585498  1
  La  La665  1  0.11353739  0.24596548  0.19619756  1
  La  La666  1  0.74044337  0.98830053  0.21273337  1
  La  La667  1  0.25857402  0.46719172  0.21405578  1
  La  La668  1  0.51579900  0.11543705  0.23048656  1
  La  La669  1  0.01923680  0.38234830  0.23437592  1
  La  La670  1  0.47217144  0.62033137  0.23307371  1
  La  La671  1  -0.01072059  0.87878677  0.23307376  1
  La  La672  1  0.76761492  0.51463753  0.25191150  1
  La  La673  1  0.26192396  0.00411275  0.25338417  1
  La  La674  1  0.38875735  0.24275740  0.27162887  1
  La  La675  1  0.88741415  0.22416203  0.27067984  1
  La  La676  1  0.12753238  0.76518069  0.27389489  1
  La  La677  1  0.62543532  0.73204111  0.27193580  1
  La  La678  1  0.24676402  0.50110930  0.29251346  1
  La  La679  1  0.75764909  0.00639432  0.29400638  1
  La  La680  1  -0.00279106  0.61225511  0.31015323  1
  La  La681  1  0.49973497  0.85674830  0.30876710  1
  La  La682  1  0.00216463  0.12252504  0.31164244  1
  La  La683  1  0.49381302  0.36588684  0.31077490  1
  La  La684  1  0.25270772  0.98320232  0.32681090  1
  La  La685  1  0.75911391  0.50236511  0.32747800  1
  La  La686  1  0.88568319  0.73468526  0.34917410  1
  La  La687  1  0.39484107  0.74497303  0.35057285  1
  La  La688  1  0.62800514  0.23773049  0.34812675  1
  La  La689  1  0.13006018  0.25791103  0.34938409  1
  La  La690  1  0.78492113  0.97043651  0.36958404  1
  La  La691  1  0.26209629  0.49114113  0.36852513  1
  Zr  Zr692  1  1.01167067  0.98502491  0.19223315  1
  Zr  Zr693  1  0.50764036  0.93109658  0.19108658  1
  Zr  Zr694  1  0.49584086  0.50190114  0.19301296  1
  Zr  Zr695  1  0.01717024  0.49557329  0.19366898  1
  Zr  Zr696  1  0.76485234  0.23604863  0.23223878  1
  Zr  Zr697  1  0.76505762  0.75109227  0.23527003  1
  Zr  Zr698  1  0.25850358  0.23324184  0.23412771  1
  Zr  Zr699  1  0.26079563  0.76191102  0.23573352  1
  Zr  Zr700  1  0.50634903  0.49313362  0.27204319  1
  Zr  Zr701  1  0.00643795  0.49957167  0.27190010  1
  Zr  Zr702  1  0.01079185  -0.00224086  0.27377121  1
  Zr  Zr703  1  0.50474179  -0.00061805  0.27383278  1
  Zr  Zr704  1  0.25423930  0.73327628  0.31393084  1
  Zr  Zr705  1  0.24781093  0.25672857  0.31063981  1
  Zr  Zr706  1  0.75724778  0.74920165  0.31149967  1
  Zr  Zr707  1  0.76667277  0.24610850  0.31224708  1
  Zr  Zr708  1  1.02804814  -0.01437827  0.34936171  1
  Zr  Zr709  1  0.49738495  0.98937962  0.35353843  1
  Zr  Zr710  1  0.52338267  0.49021312  0.34967681  1
  Zr  Zr711  1  -0.01240662  0.47807372  0.35075842  1
  O  O712  1  0.22144808  0.74882870  0.17384280  1
  O  O713  1  0.29688837  0.16476335  0.18344444  1
  O  O714  1  0.73488460  0.67206543  0.18651153  1
  O  O715  1  0.78682331  0.33028140  0.18504157  1
  O  O716  1  0.52293122  0.79657618  0.18477417  1
  O  O717  1  0.98514991  0.13334153  0.19188565  1
  O  O718  1  0.03548207  0.64745754  0.19269877  1
  O  O719  1  0.47321670  0.35835872  0.18929339  1
  O  O720  1  0.89729296  0.89899243  0.18046691  1
  O  O721  1  0.66313177  -0.04398905  0.18519954  1
  O  O722  1  0.15681076  0.42877688  0.19099262  1
  O  O723  1  0.34890794  0.55336049  0.19053680  1
  O  O724  1  0.35437765  0.91248150  0.19587020  1
  O  O725  1  0.15418667  0.01494738  0.19975338  1
  O  O726  1  0.64365741  0.45138000  0.20315248  1
  O  O727  1  0.87353034  0.51705869  0.20330701  1
  O  O728  1  0.48820728  0.17705314  0.20458534  1
  O  O729  1  0.04171013  0.85305930  0.20515314  1
  O  O730  1  0.99598735  0.35050747  0.20524152  1
  O  O731  1  0.52277016  0.62963787  0.20561471  1
  O  O732  1  0.77736416  0.16481541  0.20902806  1
  O  O733  1  0.74802573  0.81435106  0.21123628  1
  O  O734  1  0.29124864  0.29488158  0.21020534  1
  O  O735  1  0.22110635  0.74046466  0.21075961  1
  O  O736  1  0.91812434  -0.00612254  0.21483573  1
  O  O737  1  0.54469821  0.96559856  0.21524750  1
  O  O738  1  0.08766497  0.52433581  0.22064829  1
  O  O739  1  0.43915842  0.45947081  0.22055526  1
  O  O740  1  0.12237380  0.19022648  0.22416492  1
  O  O741  1  0.41013964  0.77574212  0.23272814  1
  O  O742  1  0.62010627  0.27750986  0.22634656  1
  O  O743  1  0.91104317  0.72052705  0.22714876  1
  O  O744  1  0.31160572  0.09528775  0.22683392  1
  O  O745  1  0.23182295  0.90380060  0.23110228  1
  O  O746  1  0.81267868  0.37144364  0.22979881  1
  O  O747  1  0.72474502  0.61013497  0.22845191  1
  O  O748  1  0.19259222  0.36466343  0.23844865  1
  O  O749  1  0.29447479  0.60782763  0.23631361  1
  O  O750  1  0.69359710  0.07430535  0.23755543  1
  O  O751  1  0.81612248  0.88730747  0.24249411  1
  O  O752  1  0.40565126  0.26330184  0.24248172  1
  O  O753  1  0.11576968  0.72149171  0.24481707  1
  O  O754  1  0.90091160  0.18117115  0.24065499  1
  O  O755  1  0.62945572  0.79812255  0.24482646  1
  O  O756  1  0.95141938  0.52926433  0.24740105  1
  O  O757  1  0.57329536  0.45638634  0.24904248  1
  O  O758  1  0.06414349  0.01088163  0.24934619  1
  O  O759  1  0.44746224  0.97866902  0.25005263  1
  O  O760  1  0.72489773  0.25197119  0.25795765  1
  O  O761  1  0.77912939  0.67528809  0.25987736  1
  O  O762  1  0.24524795  0.17217495  0.25906814  1
  O  O763  1  0.28424122  0.81713126  0.26223368  1
  O  O764  1  0.01559600  0.34981206  0.26641104  1
  O  O765  1  0.47401216  0.63287426  0.26520569  1
  O  O766  1  0.53124372  0.14602679  0.27122422  1
  O  O767  1  0.97715077  0.84998293  0.27030832  1
  O  O768  1  0.36865064  0.43918980  0.26517107  1
  O  O769  1  0.16211444  0.52049956  0.26623269  1
  O  O770  1  0.65245360  0.97765212  0.27137075  1
  O  O771  1  0.86540933  0.04104006  0.26999808  1
  O  O772  1  0.85906224  0.47815766  0.27753395  1
  O  O773  1  0.64576349  0.54768055  0.28043928  1
  O  O774  1  0.15048630  0.94917207  0.28224085  1
  O  O775  1  0.35528610  0.02846776  0.28136813  1
  O  O776  1  0.99927027  0.64188938  0.28011068  1
  O  O777  1  0.54945354  0.35477235  0.28284512  1
  O  O778  1  0.48754143  0.84410416  0.27958566  1
  O  O779  1  0.03548301  0.13859387  0.28175366  1
  O  O780  1  0.29018105  0.67245838  0.29075701  1
  O  O781  1  0.21653821  0.31068533  0.28635590  1
  O  O782  1  0.78803943  0.80272900  0.28751985  1
  O  O783  1  0.72056394  0.17210085  0.29109403  1
  O  O784  1  0.44844300  0.51352368  0.29705411  1
  O  O785  1  0.06515560  0.46908031  0.29724354  1
  O  O786  1  0.54012458  0.01613909  0.30136147  1
  O  O787  1  0.94525048  0.97108033  0.29968790  1
  O  O788  1  0.60807477  0.71461995  0.30643040  1
  O  O789  1  0.90492943  0.27940733  0.30169661  1
  O  O790  1  0.11511815  0.77289882  0.30712103  1
  O  O791  1  0.39602930  0.22043982  0.30464531  1
  O  O792  1  0.82299785  0.61412024  0.30702695  1
  O  O793  1  0.73389809  0.38800402  0.30691891  1
  O  O794  1  0.32743537  0.86355780  0.30846731  1
  O  O795  1  0.20678298  0.11479768  0.31009292  1
  O  O796  1  0.72846978  0.88893723  0.31756288  1
  O  O797  1  0.83507846  0.11947976  0.31895437  1
  O  O798  1  0.20939016  0.59099830  0.31920666  1
  O  O799  1  0.30133801  0.39583369  0.31641950  1
  O  O800  1  0.90552803  0.78127384  0.32064871  1
  O  O801  1  0.60629535  0.21885697  0.31954119  1
  O  O802  1  0.40503014  0.68895056  0.32291155  1
  O  O803  1  0.10854655  0.29265398  0.32074971  1
  O  O804  1  0.42312722  0.03796336  0.33185765  1
  O  O805  1  0.08104807  0.96614297  0.32522851  1
  O  O806  1  0.57794153  0.51014746  0.32507516  1
  O  O807  1  0.93440375  0.47048459  0.32614840  1
  O  O808  1  0.24858396  0.80002972  0.33870557  1
  O  O809  1  0.28530366  0.22680769  0.33717577  1
  O  O810  1  0.74366331  0.67343051  0.33631672  1
  O  O811  1  0.77207830  0.29291916  0.33851895  1
  O  O812  1  0.54408280  0.85276198  0.34408504  1
  O  O813  1  1.01271973  0.13508022  0.34616815  1
  O  O814  1  0.02221728  0.62765201  0.34421474  1
  O  O815  1  0.48948805  0.33942914  0.34547263  1
  O  O816  1  0.87687823  0.96323765  0.34550554  1
  O  O817  1  0.62976698  0.05018229  0.34374351  1
  O  O818  1  0.13960685  0.44824526  0.34754287  1
  O  O819  1  0.37344825  0.50609357  0.34698819  1
  O  O820  1  0.37672742  0.91046164  0.36209407  1
  O  O821  1  0.18581760  0.01030727  0.35499249  1
  O  O822  1  0.66155040  0.44410586  0.35706152  1
  O  O823  1  0.84942314  0.52636677  0.35756127  1
  O  O824  1  0.44286083  0.10855059  0.36614462  1
  O  O825  1  0.03267229  0.83441813  0.35213646  1
  O  O826  1  0.96485580  0.34022040  0.35783704  1
  O  O827  1  0.54464454  0.63722619  0.35343507  1
  O  O828  1  0.80536811  0.13023829  0.36415091  1
  O  O829  1  0.73969100  0.80760645  0.36459803  1
  O  O830  1  0.30119785  0.32835593  0.36749266  1
  O  O831  1  0.20811277  0.64512397  0.36306581  1
  O  O832  1  0.16154500  0.56623085  0.15906925  1
  O  O833  1  0.58121513  0.54243204  0.17462882  1
  O  O834  1  0.46738332  0.02779104  0.17385529  1
  O  O835  1  0.09474808  0.94619395  0.16997246  1
  O  O836  1  0.95213945  0.47141068  0.17142235  1
  O  O837  1  0.99970432  -0.00781316  0.37559362  1
  O  O838  1  0.02771180  0.51088119  0.37687325  1
  O  O839  1  0.48682318  0.47652356  0.37612536  1
  O  O840  1  0.60302800  0.96350111  0.37494329  1
  O  O841  1  0.18568814  0.86023191  0.38213590  1
