# generated using pymatgen
data_Li180La8Zr5O31
_symmetry_space_group_name_H-M   'P 1'
_cell_length_a   13.14513432
_cell_length_b   13.55851835
_cell_length_c   71.21668149
_cell_angle_alpha   90.26611260
_cell_angle_beta   90.23301449
_cell_angle_gamma   90.29089945
_symmetry_Int_Tables_number   1
_chemical_formula_structural   Li180La8Zr5O31
_chemical_formula_sum   'Li720 La32 Zr20 O124'
_cell_volume   12692.43883105
_cell_formula_units_Z   4
loop_
 _symmetry_equiv_pos_site_id
 _symmetry_equiv_pos_as_xyz
  1  'x, y, z'
loop_
 _atom_site_type_symbol
 _atom_site_label
 _atom_site_symmetry_multiplicity
 _atom_site_fract_x
 _atom_site_fract_y
 _atom_site_fract_z
 _atom_site_occupancy
  Li  Li0  1  0.69558159  0.94685738  0.19809755  1
  Li  Li1  1  0.79672187  0.14627254  0.19934252  1
  Li  Li2  1  0.20939763  0.56382116  0.19762341  1
  Li  Li3  1  0.32152706  0.40883279  0.20159113  1
  Li  Li4  1  0.87748962  0.26422753  0.22037320  1
  Li  Li5  1  0.63301006  0.76823343  0.21417428  1
  Li  Li6  1  0.41099113  0.22170809  0.20536350  1
  Li  Li7  1  0.11513545  0.75997253  0.19725680  1
  Li  Li8  1  0.34489011  0.12073654  0.23042721  1
  Li  Li9  1  0.16759595  0.84714554  0.22473153  1
  Li  Li10  1  0.77841421  0.48159296  0.23871184  1
  Li  Li11  1  0.67357516  0.61444442  0.22728802  1
  Li  Li12  1  0.41496305  0.32422222  0.23394595  1
  Li  Li13  1  0.09811819  0.66434701  0.22958212  1
  Li  Li14  1  0.95361404  0.15596529  0.24695322  1
  Li  Li15  1  0.57667198  0.85460574  0.24243830  1
  Li  Li16  1  0.33496433  0.94623009  0.24598286  1
  Li  Li17  1  0.16093544  0.04753185  0.24229669  1
  Li  Li18  1  0.57977229  0.42767698  0.24882231  1
  Li  Li19  1  0.93821873  0.59269739  0.24597504  1
  Li  Li20  1  0.40867229  0.41624626  0.26961275  1
  Li  Li21  1  0.10244010  0.59228987  0.26975932  1
  Li  Li22  1  0.67048628  0.94942349  0.27551779  1
  Li  Li23  1  0.84517985  0.06894476  0.27662234  1
  Li  Li24  1  0.06205292  0.15770591  0.27503855  1
  Li  Li25  1  0.47528152  0.86555780  0.27071825  1
  Li  Li26  1  0.58710922  0.34150485  0.27842062  1
  Li  Li27  1  0.94363460  0.68321064  0.27582718  1
  Li  Li28  1  0.21457276  0.42652983  0.28655500  1
  Li  Li29  1  0.30838888  0.58865618  0.28953525  1
  Li  Li30  1  0.68678744  0.10284731  0.29657764  1
  Li  Li31  1  0.83486344  0.90581997  0.29348178  1
  Li  Li32  1  0.38049051  0.76919478  0.30268639  1
  Li  Li33  1  0.13455136  0.25362872  0.30535400  1
  Li  Li34  1  0.88557017  0.75217845  0.30611964  1
  Li  Li35  1  0.63515419  0.25928660  0.30679099  1
  Li  Li36  1  0.82819919  0.59564666  0.31752725  1
  Li  Li37  1  0.70357918  0.41642625  0.31534833  1
  Li  Li38  1  0.29950407  0.92909652  0.32286175  1
  Li  Li39  1  0.20831327  0.08999248  0.32418255  1
  Li  Li40  1  0.94245877  0.83103743  0.33352485  1
  Li  Li41  1  0.58543634  0.16206278  0.33167352  1
  Li  Li42  1  0.43189222  0.66451451  0.32527332  1
  Li  Li43  1  0.06887475  0.34754781  0.33447430  1
  Li  Li44  1  0.85813394  0.43300895  0.33533474  1
  Li  Li45  1  0.66511036  0.57844713  0.33477172  1
  Li  Li46  1  0.09642560  0.92107959  0.34059701  1
  Li  Li47  1  0.41120495  0.09183055  0.34125952  1
  Li  Li48  1  0.93138305  0.92882989  0.36236252  1
  Li  Li49  1  0.57823044  0.07919580  0.36182495  1
  Li  Li50  1  0.16357696  0.46350105  0.36678216  1
  Li  Li51  1  0.33388870  0.55884172  0.36484081  1
  Li  Li52  1  0.51782476  0.62002947  0.35382535  1
  Li  Li53  1  0.96504470  0.35573002  0.36320529  1
  Li  Li54  1  0.08233262  0.82896020  0.37238292  1
  Li  Li55  1  0.42492981  0.20205854  0.37211585  1
  Li  Li56  1  0.66384875  0.89084740  0.38317596  1
  Li  Li57  1  0.76835047  0.01828461  0.37197031  1
  Li  Li58  1  0.16452764  0.66216610  0.38458388  1
  Li  Li59  1  0.34535169  0.38815282  0.38001397  1
  Li  Li60  1  0.87650390  0.23671875  0.39001259  1
  Li  Li61  1  0.64456530  0.72140188  0.39354831  1
  Li  Li62  1  0.41964903  0.29176007  0.40372921  1
  Li  Li63  1  0.07982631  0.72064105  0.41274797  1
  Li  Li64  1  0.31276202  0.14845741  0.40175074  1
  Li  Li65  1  0.19903418  0.83552657  0.40209731  1
  Li  Li66  1  0.81289165  0.39176705  0.40780658  1
  Li  Li67  1  0.70667561  0.55028684  0.41317304  1
  Li  Li68  1  0.91722083  0.19315911  0.41945765  1
  Li  Li69  1  0.58536681  0.85027897  0.41342346  1
  Li  Li70  1  0.63053381  0.65342119  0.18626635  1
  Li  Li71  1  0.90769307  0.29660403  0.18874435  1
  Li  Li72  1  0.95531215  0.04360487  0.44735385  1
  Li  Li73  1  0.14688477  0.05887245  0.46508710  1
  Li  Li74  1  0.07356868  0.08299634  0.55752487  1
  Li  Li75  1  1.08614025  0.95937221  0.53243405  1
  Li  Li76  1  0.15499757  0.14380973  0.57714461  1
  Li  Li77  1  0.10575652  0.08795184  0.59724400  1
  Li  Li78  1  -0.01309389  0.04078148  0.60196758  1
  Li  Li79  1  0.11741718  0.16437426  0.61660226  1
  Li  Li80  1  0.04587844  0.08189744  0.62922628  1
  Li  Li81  1  0.01922574  0.12907249  0.48888665  1
  Li  Li82  1  0.10649952  0.30769992  0.49902939  1
  Li  Li83  1  0.07230765  0.21752084  0.53133159  1
  Li  Li84  1  0.04701348  0.20455299  0.56450596  1
  Li  Li85  1  0.16152246  0.26647575  0.57271309  1
  Li  Li86  1  0.10618017  0.22458441  0.59621712  1
  Li  Li87  1  -0.00486870  0.17464943  0.60263052  1
  Li  Li88  1  0.13297883  0.30015643  0.61899441  1
  Li  Li89  1  0.03701001  0.22047542  0.63458827  1
  Li  Li90  1  0.94945494  0.37963147  0.47525256  1
  Li  Li91  1  0.14651132  0.43604589  0.47520219  1
  Li  Li92  1  0.18630584  0.45513218  0.51898343  1
  Li  Li93  1  0.06518586  0.33921362  0.55828559  1
  Li  Li94  1  0.14091935  0.38878405  0.57432315  1
  Li  Li95  1  0.17322431  0.49238079  0.58521659  1
  Li  Li96  1  0.05120006  0.35041009  0.60347179  1
  Li  Li97  1  0.15868635  0.43063366  0.61068144  1
  Li  Li98  1  0.08804618  0.39224249  0.63343494  1
  Li  Li99  1  0.97013774  0.36067207  0.43233291  1
  Li  Li100  1  0.13839361  0.61351205  0.49427737  1
  Li  Li101  1  0.10442215  0.60352340  0.53347412  1
  Li  Li102  1  0.10265993  0.51531473  0.56231491  1
  Li  Li103  1  0.17718040  0.64702488  0.57915936  1
  Li  Li104  1  0.05099610  0.56679181  0.58053657  1
  Li  Li105  1  0.09783506  0.53512877  0.60174102  1
  Li  Li106  1  0.15095943  0.62770535  0.61967940  1
  Li  Li107  1  0.08575405  0.52026098  0.62456432  1
  Li  Li108  1  0.88402857  0.58686410  0.43194395  1
  Li  Li109  1  0.15606354  0.77625682  0.51813969  1
  Li  Li110  1  0.04658138  0.76933290  0.54654224  1
  Li  Li111  1  0.01671885  0.69543611  0.56418614  1
  Li  Li112  1  0.13129318  0.84986917  0.57339844  1
  Li  Li113  1  0.09158748  0.78060255  0.59039017  1
  Li  Li114  1  0.11393519  0.66988604  0.59884688  1
  Li  Li115  1  0.17636776  0.76742226  0.61154052  1
  Li  Li116  1  0.07136415  0.73309777  0.62428514  1
  Li  Li117  1  0.90723283  0.82052636  0.44972792  1
  Li  Li118  1  0.09360135  0.88375217  0.45667802  1
  Li  Li119  1  0.10044301  0.93709819  0.49564435  1
  Li  Li120  1  1.00094100  0.84861847  0.58176008  1
  Li  Li121  1  0.11141113  1.01505577  0.57493634  1
  Li  Li122  1  0.08150665  0.95198249  0.59329892  1
  Li  Li123  1  -0.00829506  0.90245693  0.60591317  1
  Li  Li124  1  0.09400459  0.98787827  0.61530381  1
  Li  Li125  1  0.04876230  0.86788545  0.62513408  1
  Li  Li126  1  0.28318483  0.92287032  0.45441286  1
  Li  Li127  1  0.38778030  0.13742282  0.50490633  1
  Li  Li128  1  0.18343335  0.10566083  0.51380066  1
  Li  Li129  1  0.18672833  0.02486440  0.55691768  1
  Li  Li130  1  0.28268545  0.20759020  0.57778655  1
  Li  Li131  1  0.27983394  0.08746486  0.58317049  1
  Li  Li132  1  0.21691238  0.03249766  0.60436024  1
  Li  Li133  1  0.30329597  0.11344486  0.61824726  1
  Li  Li134  1  0.18590291  0.05581338  0.62745316  1
  Li  Li135  1  0.10386120  0.11318084  0.42786633  1
  Li  Li136  1  0.24389154  0.20148951  0.47990019  1
  Li  Li137  1  0.27951519  0.28245450  0.51289039  1
  Li  Li138  1  0.19885059  0.18417927  0.55616336  1
  Li  Li139  1  0.26075026  0.34404334  0.57499055  1
  Li  Li140  1  0.31720895  0.29140639  0.59369240  1
  Li  Li141  1  0.22175363  0.16905955  0.59953881  1
  Li  Li142  1  0.27245962  0.32022424  0.61500552  1
  Li  Li143  1  0.23065959  0.21108457  0.62434095  1
  Li  Li144  1  0.05979185  0.23995510  0.46014477  1
  Li  Li145  1  0.33409050  0.36761288  0.47183087  1
  Li  Li146  1  0.24395060  0.43682307  0.55623851  1
  Li  Li147  1  0.21949621  0.33166249  0.54553947  1
  Li  Li148  1  0.29302522  0.51207228  0.57788332  1
  Li  Li149  1  0.27549634  0.42003276  0.59725510  1
  Li  Li150  1  0.17851832  0.32675286  0.59566575  1
  Li  Li151  1  0.32920182  0.46506123  0.62023017  1
  Li  Li152  1  0.21906443  0.39386321  0.63109210  1
  Li  Li153  1  0.06889778  0.50732845  0.44615596  1
  Li  Li154  1  0.25032286  0.59383662  0.46296449  1
  Li  Li155  1  0.31482048  0.49375743  0.49483150  1
  Li  Li156  1  0.24824031  0.54976225  0.54942292  1
  Li  Li157  1  0.33829496  0.63677388  0.56811471  1
  Li  Li158  1  0.34123246  0.62013228  0.59150755  1
  Li  Li159  1  0.24368067  0.53881341  0.60273636  1
  Li  Li160  1  0.33387440  0.59934075  0.61536359  1
  Li  Li161  1  0.22645342  0.52947969  0.62569389  1
  Li  Li162  1  0.06778610  0.68936548  0.45449659  1
  Li  Li163  1  0.36706195  0.78162725  0.51302171  1
  Li  Li164  1  0.28183875  0.61868782  0.51871434  1
  Li  Li165  1  0.19432173  0.70018172  0.55940451  1
  Li  Li166  1  0.36028897  0.81232086  0.57713516  1
  Li  Li167  1  0.26959791  0.76670464  0.58871836  1
  Li  Li168  1  0.25441481  0.67774297  0.60491613  1
  Li  Li169  1  0.31508193  0.79595957  0.61649114  1
  Li  Li170  1  0.25386618  0.69812367  0.62873255  1
  Li  Li171  1  0.23594158  0.78121883  0.48114001  1
  Li  Li172  1  0.27923192  0.98488069  0.48814349  1
  Li  Li173  1  0.26210935  0.93215483  0.52389350  1
  Li  Li174  1  0.21482616  0.86275023  0.55662862  1
  Li  Li175  1  0.34163599  0.98118938  0.57143249  1
  Li  Li176  1  0.26292304  0.94945271  0.58787748  1
  Li  Li177  1  0.19548670  0.89731604  0.60456485  1
  Li  Li178  1  0.30850749  0.98920475  0.62231317  1
  Li  Li179  1  0.23333984  0.90693957  0.63307624  1
  Li  Li180  1  0.43693549  1.04554030  0.46906346  1
  Li  Li181  1  0.58260015  0.12712197  0.50275964  1
  Li  Li182  1  0.51965403  0.07623345  0.53793426  1
  Li  Li183  1  0.33134716  0.08202107  0.54015605  1
  Li  Li184  1  0.42920991  0.15451649  0.56585319  1
  Li  Li185  1  0.46663956  0.09085115  0.59198675  1
  Li  Li186  1  0.35840231  0.03695974  0.60217567  1
  Li  Li187  1  0.43714193  0.12542259  0.61666735  1
  Li  Li188  1  0.39110482  0.07880761  0.63738201  1
  Li  Li189  1  0.30380882  0.14757556  0.44677578  1
  Li  Li190  1  0.48100868  0.32178209  0.50370497  1
  Li  Li191  1  0.42933295  0.24604201  0.53494266  1
  Li  Li192  1  0.33114286  0.27706515  0.54786913  1
  Li  Li193  1  0.45259596  0.29690214  0.57190548  1
  Li  Li194  1  0.45734053  0.27054807  0.59463744  1
  Li  Li195  1  0.35864435  0.17459455  0.59865254  1
  Li  Li196  1  0.44803735  0.26298152  0.61769076  1
  Li  Li197  1  0.36301223  0.21258197  0.63244360  1
  Li  Li198  1  0.20122982  0.32622618  0.44370991  1
  Li  Li199  1  0.50317785  0.48136894  0.48596576  1
  Li  Li200  1  0.35762740  0.42688314  0.52736994  1
  Li  Li201  1  0.36607719  0.40358888  0.56938372  1
  Li  Li202  1  0.42066189  0.53180809  0.57806807  1
  Li  Li203  1  0.45916970  0.40192355  0.58491528  1
  Li  Li204  1  0.39282037  0.37406769  0.60670642  1
  Li  Li205  1  0.46140716  0.46985029  0.61986578  1
  Li  Li206  1  0.39744143  0.36025444  0.63054703  1
  Li  Li207  1  0.43386199  0.52500690  0.45345779  1
  Li  Li208  1  0.41976579  0.66077736  0.48479072  1
  Li  Li209  1  0.46590291  0.57642550  0.51893866  1
  Li  Li210  1  0.36472044  0.51731978  0.55425783  1
  Li  Li211  1  0.44760488  0.67002833  0.57720227  1
  Li  Li212  1  0.46645929  0.60217682  0.59622466  1
  Li  Li213  1  0.37930304  0.49543105  0.59923426  1
  Li  Li214  1  0.46764546  0.60959225  0.61964672  1
  Li  Li215  1  0.37798190  0.56747270  0.63659690  1
  Li  Li216  1  0.23581204  0.74593687  0.43503008  1
  Li  Li217  1  0.56296865  0.79227034  0.50171157  1
  Li  Li218  1  0.52028193  0.73385376  0.53670044  1
  Li  Li219  1  0.35431470  0.68408095  0.54677454  1
  Li  Li220  1  0.52508767  0.76384043  0.58082931  1
  Li  Li221  1  0.45083436  0.82058340  0.59840639  1
  Li  Li222  1  0.39465695  0.71117116  0.60619573  1
  Li  Li223  1  0.45589409  0.80526485  0.62185288  1
  Li  Li224  1  0.38618204  0.70142760  0.63002365  1
  Li  Li225  1  0.43505024  0.85867458  0.47498593  1
  Li  Li226  1  0.44448099  0.96506159  0.50545363  1
  Li  Li227  1  0.42829436  0.90449886  0.53780441  1
  Li  Li228  1  0.39818781  0.83672754  0.55615724  1
  Li  Li229  1  0.45914990  0.98878518  0.56564842  1
  Li  Li230  1  0.45668730  0.96109419  0.59586188  1
  Li  Li231  1  0.37399829  0.90180332  0.60965149  1
  Li  Li232  1  0.43916238  0.99405549  0.62137120  1
  Li  Li233  1  0.37937714  0.89870286  0.63616603  1
  Li  Li234  1  0.24501425  0.99384806  0.41799716  1
  Li  Li235  1  0.63638634  0.14982180  0.46646263  1
  Li  Li236  1  0.70723374  0.06413054  0.52989012  1
  Li  Li237  1  0.57215280  1.02477811  0.57075847  1
  Li  Li238  1  0.67248188  0.18610984  0.57826542  1
  Li  Li239  1  0.61522016  0.09514450  0.59276074  1
  Li  Li240  1  0.54180035  0.04446449  0.60979618  1
  Li  Li241  1  0.64010935  0.11552376  0.61863392  1
  Li  Li242  1  0.53059513  0.06500019  0.63308299  1
  Li  Li243  1  0.45420933  0.22614960  0.47183853  1
  Li  Li244  1  0.61022728  0.24210911  0.52942993  1
  Li  Li245  1  0.58537836  0.25004618  0.55230108  1
  Li  Li246  1  0.52766229  0.18012614  0.57913746  1
  Li  Li247  1  0.70957576  0.30103234  0.58589345  1
  Li  Li248  1  0.58565688  0.27936998  0.58966616  1
  Li  Li249  1  0.54616893  0.18110382  0.60522229  1
  Li  Li250  1  0.62605371  0.28368717  0.61512287  1
  Li  Li251  1  0.53859591  0.19946036  0.62844024  1
  Li  Li252  1  0.41585072  0.33508928  0.43886235  1
  Li  Li253  1  0.64502103  0.44278257  0.51054519  1
  Li  Li254  1  0.52719220  0.41266395  0.53785093  1
  Li  Li255  1  0.46798944  0.38490588  0.55694263  1
  Li  Li256  1  0.57390910  0.51478186  0.56773333  1
  Li  Li257  1  0.62407959  0.40926298  0.57266030  1
  Li  Li258  1  0.52577917  0.36690881  0.60708421  1
  Li  Li259  1  0.59953032  0.47932515  0.61506136  1
  Li  Li260  1  0.58516870  0.38180232  0.62811051  1
  Li  Li261  1  0.58771089  0.40810990  0.42926604  1
  Li  Li262  1  0.63935503  0.54696237  0.46209991  1
  Li  Li263  1  0.64084182  0.62699909  0.49916376  1
  Li  Li264  1  0.48176828  0.55620450  0.55458687  1
  Li  Li265  1  0.58189035  0.65585618  0.58453663  1
  Li  Li266  1  0.59387371  0.59584576  0.60711032  1
  Li  Li267  1  0.52125709  0.49155163  0.59602644  1
  Li  Li268  1  0.59163477  0.66986004  0.62584258  1
  Li  Li269  1  0.53212005  0.55576983  0.63737293  1
  Li  Li270  1  0.41011600  0.73121916  0.44919401  1
  Li  Li271  1  0.69806354  0.77769316  0.52898574  1
  Li  Li272  1  0.57787844  0.86809930  0.55573102  1
  Li  Li273  1  0.51937073  0.71263481  0.55952142  1
  Li  Li274  1  0.63906841  0.85126427  0.57592984  1
  Li  Li275  1  0.59173626  0.82351967  0.59800298  1
  Li  Li276  1  0.52393403  0.71395398  0.60639193  1
  Li  Li277  1  0.59278893  0.80638862  0.62155058  1
  Li  Li278  1  0.53110515  0.73651271  0.64148886  1
  Li  Li279  1  0.41745025  0.91672259  0.42822928  1
  Li  Li280  1  0.61382679  0.96507825  0.48539046  1
  Li  Li281  1  0.59542850  0.92805702  0.52368293  1
  Li  Li282  1  0.51524879  0.88401324  0.58177112  1
  Li  Li283  1  0.68777390  1.02056187  0.57937113  1
  Li  Li284  1  0.60245568  0.95775076  0.59352461  1
  Li  Li285  1  0.53586620  0.90896503  0.61162362  1
  Li  Li286  1  0.62687788  0.98906009  0.62614773  1
  Li  Li287  1  0.52240683  0.91084682  0.63465506  1
  Li  Li288  1  0.58257308  0.93851244  0.44782461  1
  Li  Li289  1  0.78867244  0.10469772  0.49758920  1
  Li  Li290  1  0.85289850  0.14602320  0.54373293  1
  Li  Li291  1  0.68962779  0.09608876  0.55172010  1
  Li  Li292  1  0.83911692  0.11950175  0.57003631  1
  Li  Li293  1  0.75984089  0.10354348  0.59123679  1
  Li  Li294  1  0.70473472  0.01542105  0.60525454  1
  Li  Li295  1  0.77852546  0.11516639  0.61541876  1
  Li  Li296  1  0.71595690  0.08140119  0.63748023  1
  Li  Li297  1  0.50873661  0.11917910  0.43065204  1
  Li  Li298  1  0.72719404  0.29434343  0.49519144  1
  Li  Li299  1  0.78956436  0.22456889  0.52897868  1
  Li  Li300  1  0.75548765  0.25410810  0.56157657  1
  Li  Li301  1  0.80571685  0.35215044  0.56870993  1
  Li  Li302  1  0.80724120  0.22039744  0.58750046  1
  Li  Li303  1  0.68808564  0.19500852  0.60209391  1
  Li  Li304  1  0.76082602  0.29519355  0.60780772  1
  Li  Li305  1  0.71789730  0.20967872  0.62746823  1
  Li  Li306  1  0.60525927  0.35015760  0.46706846  1
  Li  Li307  1  0.80357758  0.49989568  0.49282108  1
  Li  Li308  1  0.85518950  0.42029622  0.52709201  1
  Li  Li309  1  0.70270934  0.39083098  0.54213136  1
  Li  Li310  1  0.76231137  0.52218462  0.56182244  1
  Li  Li311  1  0.78389153  0.40451588  0.58895509  1
  Li  Li312  1  0.65664588  0.38202926  0.60101987  1
  Li  Li313  1  0.75188502  0.43032788  0.61421406  1
  Li  Li314  1  0.75958386  0.34175450  0.63006764  1
  Li  Li315  1  0.79327614  0.42688539  0.45550542  1
  Li  Li316  1  0.81236724  0.73509320  0.50056345  1
  Li  Li317  1  0.79433448  0.59704086  0.52759449  1
  Li  Li318  1  0.63026273  0.58432973  0.53785840  1
  Li  Li319  1  0.83554146  0.61479679  0.56748932  1
  Li  Li320  1  0.69604143  0.60673363  0.58764277  1
  Li  Li321  1  0.68847983  0.50205555  0.59890129  1
  Li  Li322  1  0.80393351  0.60776498  0.61481340  1
  Li  Li323  1  0.72152942  0.56920240  0.62940707  1
  Li  Li324  1  0.55211573  0.64212862  0.43046279  1
  Li  Li325  1  0.74791817  0.84101127  0.47404107  1
  Li  Li326  1  0.70399921  0.74017597  0.55118606  1
  Li  Li327  1  0.67092208  0.67135587  0.56843031  1
  Li  Li328  1  0.78161362  0.83494002  0.57490091  1
  Li  Li329  1  0.70680254  0.78481167  0.59129031  1
  Li  Li330  1  0.65520835  0.70699200  0.60662310  1
  Li  Li331  1  0.77979361  0.77608534  0.62220547  1
  Li  Li332  1  0.69304547  0.73456992  0.63587378  1
  Li  Li333  1  0.59208538  0.73413690  0.46554484  1
  Li  Li334  1  0.76988236  0.92520486  0.50931288  1
  Li  Li335  1  0.80270012  0.91802335  0.54509119  1
  Li  Li336  1  0.68709574  0.92131316  0.55361421  1
  Li  Li337  1  0.82788861  1.00308597  0.57727256  1
  Li  Li338  1  0.73734443  0.92051438  0.58964069  1
  Li  Li339  1  0.67660555  0.89480739  0.61254239  1
  Li  Li340  1  0.76766417  0.98495516  0.62533474  1
  Li  Li341  1  0.71412756  0.89611293  0.63835707  1
  Li  Li342  1  0.76930794  1.01588690  0.46174091  1
  Li  Li343  1  0.95062907  0.07185224  0.51957772  1
  Li  Li344  1  0.95557662  0.12526413  0.55695803  1
  Li  Li345  1  0.86016543  0.03000132  0.54828667  1
  Li  Li346  1  1.01778526  0.11848475  0.58092949  1
  Li  Li347  1  0.89498238  0.11801501  0.59164035  1
  Li  Li348  1  0.84518433  0.01724344  0.60389944  1
  Li  Li349  1  0.92123485  0.10834571  0.61762830  1
  Li  Li350  1  0.85850775  0.07158911  0.63672840  1
  Li  Li351  1  0.85389269  0.20769435  0.46741301  1
  Li  Li352  1  0.92347800  0.27673411  0.50735145  1
  Li  Li353  1  0.92242998  0.29650214  0.54620636  1
  Li  Li354  1  0.93326040  0.22473363  0.57541629  1
  Li  Li355  1  1.05223122  0.30617043  0.58168938  1
  Li  Li356  1  0.92589111  0.29609200  0.59451179  1
  Li  Li357  1  0.87116991  0.21213460  0.60863961  1
  Li  Li358  1  0.97939559  0.28809562  0.61873391  1
  Li  Li359  1  0.85948648  0.18985873  0.63190975  1
  Li  Li360  1  0.73759254  0.23792717  0.43564248  1
  Li  Li361  1  0.00166694  0.47889323  0.50759000  1
  Li  Li362  1  1.05547576  0.40291441  0.53844595  1
  Li  Li363  1  0.94826302  0.36475894  0.57522940  1
  Li  Li364  1  1.03950731  0.44582574  0.58492669  1
  Li  Li365  1  0.93063141  0.41962559  0.59847855  1
  Li  Li366  1  0.86674620  0.34393816  0.61708127  1
  Li  Li367  1  0.98578540  0.42424681  0.62001697  1
  Li  Li368  1  0.84980896  0.44866725  0.62840696  1
  Li  Li369  1  0.96063386  0.57741843  0.47565468  1
  Li  Li370  1  0.97236930  0.66702044  0.51436421  1
  Li  Li371  1  0.94812358  0.55116144  0.54668337  1
  Li  Li372  1  0.92986324  0.46706751  0.56324793  1
  Li  Li373  1  0.97756548  0.66232085  0.58491380  1
  Li  Li374  1  0.95914309  0.55654034  0.59629117  1
  Li  Li375  1  0.84843152  0.50621994  0.59289786  1
  Li  Li376  1  1.01810755  0.63189652  0.61305277  1
  Li  Li377  1  0.94533232  0.54341977  0.62286150  1
  Li  Li378  1  0.79826010  0.65826352  0.46469313  1
  Li  Li379  1  0.99503767  0.77480314  0.48470317  1
  Li  Li380  1  0.87383687  0.74328315  0.53961919  1
  Li  Li381  1  0.84290241  0.73177070  0.57097329  1
  Li  Li382  1  0.90176031  0.83877493  0.56814815  1
  Li  Li383  1  0.88897476  0.79395655  0.59551852  1
  Li  Li384  1  0.84296493  0.68435627  0.59968509  1
  Li  Li385  1  0.96650747  0.76534882  0.61213759  1
  Li  Li386  1  0.93221654  0.70150478  0.63033229  1
  Li  Li387  1  0.72941417  0.77658595  0.43331630  1
  Li  Li388  1  0.91574500  0.95837066  0.48316400  1
  Li  Li389  1  0.94272886  0.87058268  0.51890958  1
  Li  Li390  1  0.97885332  0.91609371  0.55693806  1
  Li  Li391  1  0.95501223  1.01126684  0.57919496  1
  Li  Li392  1  0.87956886  0.91276276  0.59011394  1
  Li  Li393  1  0.80502570  0.90090973  0.60913725  1
  Li  Li394  1  0.95911287  0.97861063  0.62353732  1
  Li  Li395  1  0.89114445  0.88620220  0.63250251  1
  Li  Li396  1  -0.00809094  -0.01895436  0.65112445  1
  Li  Li397  1  0.15929991  0.09429270  0.66154642  1
  Li  Li398  1  0.09533779  0.05317704  0.67936030  1
  Li  Li399  1  0.01742195  -0.03156368  0.71564544  1
  Li  Li400  1  0.08508280  0.08408912  0.77049564  1
  Li  Li401  1  -0.01889422  -0.05627413  0.79595812  1
  Li  Li402  1  0.01738921  -0.18020117  0.84929209  1
  Li  Li403  1  0.08581960  0.18541332  0.88847821  1
  Li  Li404  1  -0.05805190  0.01385716  0.94171559  1
  Li  Li405  1  0.00076985  0.14823242  0.65158320  1
  Li  Li406  1  0.10434945  0.26568699  0.66084566  1
  Li  Li407  1  0.08512196  0.23062666  0.68233543  1
  Li  Li408  1  -0.02332777  0.11420248  0.73620157  1
  Li  Li409  1  0.14998206  0.22786463  0.74579942  1
  Li  Li410  1  0.00293586  0.12601124  0.80433824  1
  Li  Li411  1  -0.09765155  0.10194597  0.83884995  1
  Li  Li412  1  0.04644036  0.38804127  0.86745993  1
  Li  Li413  1  -0.08415821  0.10734292  0.90635989  1
  Li  Li414  1  -0.02957009  0.36708328  0.64862512  1
  Li  Li415  1  0.08679916  0.42639880  0.65967737  1
  Li  Li416  1  0.00945401  0.39458873  0.68983708  1
  Li  Li417  1  -0.02496780  0.28739208  0.72245210  1
  Li  Li418  1  0.11002240  0.39700858  0.75937059  1
  Li  Li419  1  0.07910576  0.29770654  0.79333439  1
  Li  Li420  1  -0.02253027  0.28128014  0.82850350  1
  Li  Li421  1  0.11180708  0.54714717  0.89240045  1
  Li  Li422  1  0.15547918  0.36178896  0.90910208  1
  Li  Li423  1  0.01378538  0.48225757  0.64284553  1
  Li  Li424  1  0.09584427  0.56944182  0.65666794  1
  Li  Li425  1  0.09826581  0.52323186  0.69777068  1
  Li  Li426  1  -0.02139273  0.47783807  0.72641219  1
  Li  Li427  1  0.04362882  0.58128829  0.75865172  1
  Li  Li428  1  0.03325864  0.48219231  0.79234681  1
  Li  Li429  1  -0.13425399  0.41806824  0.84699388  1
  Li  Li430  1  -0.00377354  0.60970683  0.86097793  1
  Li  Li431  1  -0.00178516  0.46897873  0.92702203  1
  Li  Li432  1  0.04027910  0.61594883  0.63674598  1
  Li  Li433  1  0.08561673  0.81138545  0.66545416  1
  Li  Li434  1  0.04870724  0.61572616  0.68611139  1
  Li  Li435  1  0.03456294  0.65487712  0.72174591  1
  Li  Li436  1  0.16535391  0.66761579  0.71141380  1
  Li  Li437  1  -0.06158174  0.76224404  0.81090510  1
  Li  Li438  1  -0.10813121  0.57935034  0.82273156  1
  Li  Li439  1  0.05571991  0.79572852  0.88540803  1
  Li  Li440  1  0.05281678  0.62660388  0.95380992  1
  Li  Li441  1  0.02940718  0.81062538  0.64506101  1
  Li  Li442  1  0.12945443  0.91372640  0.65695540  1
  Li  Li443  1  0.11583425  0.89031994  0.69318582  1
  Li  Li444  1  0.04834829  0.79258473  0.69926623  1
  Li  Li445  1  0.19544020  0.82882541  0.72341005  1
  Li  Li446  1  -0.02664538  0.76749531  0.76907893  1
  Li  Li447  1  -0.17724150  0.74229589  0.84416352  1
  Li  Li448  1  0.10280165  0.99798134  0.90777842  1
  Li  Li449  1  0.10263191  0.83770013  0.93277787  1
  Li  Li450  1  0.09988886  -0.01678922  0.63892083  1
  Li  Li451  1  0.32150624  0.07925229  0.66083478  1
  Li  Li452  1  0.28019551  0.05965553  0.69980116  1
  Li  Li453  1  0.19768345  -0.02896598  0.70329043  1
  Li  Li454  1  0.25257548  0.17133959  0.77924025  1
  Li  Li455  1  0.08780100  0.00169353  0.83285197  1
  Li  Li456  1  0.22087026  0.05601508  0.86896248  1
  Li  Li457  1  0.26266325  0.13651594  0.90764427  1
  Li  Li458  1  0.18477589  0.02385522  0.94501185  1
  Li  Li459  1  0.13791328  0.15927436  0.64212057  1
  Li  Li460  1  0.26733486  0.24224432  0.66149332  1
  Li  Li461  1  0.25919597  0.21075924  0.68311999  1
  Li  Li462  1  0.12025641  0.14125247  0.71218826  1
  Li  Li463  1  0.36348902  0.24979774  0.75545274  1
  Li  Li464  1  0.19497278  0.17420339  0.81450598  1
  Li  Li465  1  0.11024170  0.18914831  0.84964349  1
  Li  Li466  1  0.23668916  0.30903383  0.87485657  1
  Li  Li467  1  0.09507416  0.19557341  0.93012048  1
  Li  Li468  1  0.17175767  0.29304246  0.64218031  1
  Li  Li469  1  0.22865382  0.39231136  0.65812552  1
  Li  Li470  1  0.19359844  0.38399473  0.68025845  1
  Li  Li471  1  0.14810414  0.34557785  0.71296061  1
  Li  Li472  1  0.27840909  0.38780157  0.73843052  1
  Li  Li473  1  0.27628314  0.36972983  0.78535635  1
  Li  Li474  1  0.17991587  0.34715690  0.82725706  1
  Li  Li475  1  0.21634424  0.49822746  0.85443466  1
  Li  Li476  1  0.10092526  0.37415659  0.95687030  1
  Li  Li477  1  0.15808170  0.48404081  0.64368776  1
  Li  Li478  1  0.24861876  0.57103795  0.64751207  1
  Li  Li479  1  0.18571026  0.51372185  0.66899090  1
  Li  Li480  1  0.16139667  0.52426105  0.73273874  1
  Li  Li481  1  0.25128760  0.55305960  0.76548466  1
  Li  Li482  1  0.20559448  0.51919388  0.80706268  1
  Li  Li483  1  0.04408056  0.47241011  0.83087548  1
  Li  Li484  1  0.21849905  0.68773467  0.86757933  1
  Li  Li485  1  0.22351467  0.52948965  0.93433817  1
  Li  Li486  1  0.15187851  0.67078335  0.64241334  1
  Li  Li487  1  0.22320951  0.75866418  0.65286820  1
  Li  Li488  1  0.21104545  0.63873410  0.66631190  1
  Li  Li489  1  0.21856071  0.65328868  0.68984331  1
  Li  Li490  1  0.15617246  0.71545498  0.75010911  1
  Li  Li491  1  0.10222559  0.66950021  0.79121294  1
  Li  Li492  1  0.10236508  0.65988083  0.83018089  1
  Li  Li493  1  0.40352179  0.76461361  0.88540905  1
  Li  Li494  1  0.21337195  0.70719745  0.90973493  1
  Li  Li495  1  0.16337846  0.80404356  0.63414209  1
  Li  Li496  1  0.25756754  0.95768831  0.67142388  1
  Li  Li497  1  0.24497423  0.84205887  0.67484565  1
  Li  Li498  1  0.17133103  0.74317149  0.67723537  1
  Li  Li499  1  0.27484093  0.80059819  0.70581249  1
  Li  Li500  1  0.13398166  0.87498216  0.77194559  1
  Li  Li501  1  0.13623263  0.83103635  0.81212875  1
  Li  Li502  1  0.23930738  0.88656289  0.88872067  1
  Li  Li503  1  0.26571285  0.74098865  0.95468349  1
  Li  Li504  1  0.28481555  -0.00176618  0.64527953  1
  Li  Li505  1  0.41251950  0.16046352  0.66515581  1
  Li  Li506  1  0.37955131  0.08467303  0.68105814  1
  Li  Li507  1  0.14194861  -0.01991885  0.74047005  1
  Li  Li508  1  0.28209374  0.09237637  0.74103989  1
  Li  Li509  1  0.20182237  0.00170872  0.79959699  1
  Li  Li510  1  0.41361454  -0.05106418  0.86080879  1
  Li  Li511  1  0.40148989  0.13484039  0.93564075  1
  Li  Li512  1  0.37990506  -0.03414666  0.96316049  1
  Li  Li513  1  0.27439412  0.13365736  0.64141467  1
  Li  Li514  1  0.42436096  0.27291373  0.64979049  1
  Li  Li515  1  0.45340943  0.22370597  0.69558334  1
  Li  Li516  1  0.29708528  0.21774401  0.71804348  1
  Li  Li517  1  0.45943138  0.31453081  0.72751898  1
  Li  Li518  1  0.38862930  0.24510861  0.80839731  1
  Li  Li519  1  0.31064489  0.04970691  0.83292059  1
  Li  Li520  1  0.40143957  0.29434894  0.90385655  1
  Li  Li521  1  0.26102917  0.18680542  0.96756465  1
  Li  Li522  1  0.31030500  0.32310734  0.64607104  1
  Li  Li523  1  0.43445725  0.42020970  0.66371558  1
  Li  Li524  1  0.37251810  0.35148165  0.67790804  1
  Li  Li525  1  0.33922389  0.35600324  0.69995662  1
  Li  Li526  1  0.43526482  0.43929068  0.76376871  1
  Li  Li527  1  0.48794529  0.41253228  0.79824132  1
  Li  Li528  1  0.32671876  0.24674408  0.84399793  1
  Li  Li529  1  0.42589260  0.38921938  0.86716418  1
  Li  Li530  1  0.29056932  0.31890994  0.93713123  1
  Li  Li531  1  0.30301961  0.46070066  0.64376097  1
  Li  Li532  1  0.39828237  0.58218047  0.66445953  1
  Li  Li533  1  0.30620805  0.52406283  0.67485843  1
  Li  Li534  1  0.27162631  0.50852890  0.70680865  1
  Li  Li535  1  0.41235374  0.50311057  0.73108845  1
  Li  Li536  1  0.37852275  0.57829956  0.79501820  1
  Li  Li537  1  0.35429032  0.43651857  0.82818922  1
  Li  Li538  1  0.31281504  0.50268458  0.89495551  1
  Li  Li539  1  0.42413042  0.56628305  0.96140741  1
  Li  Li540  1  0.31504128  0.67392762  0.64923613  1
  Li  Li541  1  0.42114397  0.75861561  0.67782502  1
  Li  Li542  1  0.38601739  0.63906095  0.70143013  1
  Li  Li543  1  0.31231730  0.65729209  0.73231830  1
  Li  Li544  1  0.32612434  0.81972742  0.75068668  1
  Li  Li545  1  0.27997757  0.74633902  0.78624807  1
  Li  Li546  1  0.30408612  0.66948597  0.82711194  1
  Li  Li547  1  0.53092359  0.79200816  0.91550187  1
  Li  Li548  1  0.39053512  0.65738367  0.92440380  1
  Li  Li549  1  0.32642157  0.82618478  0.65138134  1
  Li  Li550  1  0.43509233  0.93229866  0.67028105  1
  Li  Li551  1  0.38944284  0.91349105  0.69153502  1
  Li  Li552  1  0.30917316  0.71188488  0.67297191  1
  Li  Li553  1  0.30156567  0.97889244  0.76796727  1
  Li  Li554  1  0.33935119  0.87030473  0.81516872  1
  Li  Li555  1  0.22837074  0.85912726  0.84847863  1
  Li  Li556  1  0.41232676  0.99479121  0.89895513  1
  Li  Li557  1  0.32956849  0.88175867  0.92601207  1
  Li  Li558  1  0.46313438  0.01285490  0.65476749  1
  Li  Li559  1  0.56702455  0.15723562  0.67296858  1
  Li  Li560  1  0.54581783  0.07074900  0.68937404  1
  Li  Li561  1  0.35269684  -0.05257002  0.72514702  1
  Li  Li562  1  0.47465466  0.08293210  0.75831292  1
  Li  Li563  1  0.41006839  0.06293074  0.79664357  1
  Li  Li564  1  0.51690117  -0.04599836  0.82399561  1
  Li  Li565  1  0.56270424  0.13550296  0.90448857  1
  Li  Li566  1  0.54395235  -0.02109434  0.93134506  1
  Li  Li567  1  0.49760817  0.15035046  0.64851573  1
  Li  Li568  1  0.64528230  0.24303827  0.66612231  1
  Li  Li569  1  0.51880534  0.25762431  0.66437462  1
  Li  Li570  1  0.45095397  0.10052747  0.71947992  1
  Li  Li571  1  0.51338700  0.25280840  0.77754773  1
  Li  Li572  1  0.49879619  0.14068371  0.83846495  1
  Li  Li573  1  0.40161363  0.15832629  0.87440526  1
  Li  Li574  1  0.58106660  0.27469607  0.93368272  1
  Li  Li575  1  0.56154423  0.11450138  0.96460698  1
  Li  Li576  1  0.53244610  0.32796703  0.64580102  1
  Li  Li577  1  0.60223936  0.46179196  0.65938958  1
  Li  Li578  1  0.58548380  0.39895352  0.67857263  1
  Li  Li579  1  0.52486766  0.32093927  0.69341883  1
  Li  Li580  1  0.58802289  0.44136545  0.72108032  1
  Li  Li581  1  0.66182556  0.33086711  0.80107161  1
  Li  Li582  1  0.53849589  0.33627604  0.83341571  1
  Li  Li583  1  0.58728338  0.39113163  0.90031020  1
  Li  Li584  1  0.45751267  0.32387504  0.96483771  1
  Li  Li585  1  0.44969507  0.47078773  0.64372008  1
  Li  Li586  1  0.57396052  0.63655661  0.66807877  1
  Li  Li587  1  0.53187163  0.56169630  0.68479129  1
  Li  Li588  1  0.45900800  0.48263324  0.69588009  1
  Li  Li589  1  0.58832663  0.55616983  0.75079728  1
  Li  Li590  1  0.57614740  0.58063714  0.78731793  1
  Li  Li591  1  0.50832172  0.55085183  0.82516662  1
  Li  Li592  1  0.50332610  0.57849428  0.89396631  1
  Li  Li593  1  0.45001379  0.45290123  0.92827543  1
  Li  Li594  1  0.43965143  0.66838133  0.65045892  1
  Li  Li595  1  0.57853362  0.81248387  0.67112102  1
  Li  Li596  1  0.58439238  0.72614635  0.69996052  1
  Li  Li597  1  0.53747881  0.61244909  0.72037983  1
  Li  Li598  1  0.59180911  0.74681693  0.74523122  1
  Li  Li599  1  0.43534199  0.66787518  0.76229276  1
  Li  Li600  1  0.41569252  0.59162516  0.85880824  1
  Li  Li601  1  0.63119424  0.71644590  0.87699447  1
  Li  Li602  1  0.59921586  0.60915527  0.92944331  1
  Li  Li603  1  0.44675057  0.81602905  0.64783397  1
  Li  Li604  1  0.60126989  0.99450189  0.67440484  1
  Li  Li605  1  0.54717259  0.91983913  0.70492745  1
  Li  Li606  1  0.44638059  0.78698414  0.72055251  1
  Li  Li607  1  0.51441200  0.91401180  0.74722381  1
  Li  Li608  1  0.44042114  0.86560735  0.78179408  1
  Li  Li609  1  0.45344356  0.77751908  0.84648703  1
  Li  Li610  1  0.59550988  0.90408771  0.88902416  1
  Li  Li611  1  0.50703065  0.78260198  0.95405354  1
  Li  Li612  1  0.63750256  0.03238286  0.65380377  1
  Li  Li613  1  0.74458024  0.09994615  0.67986226  1
  Li  Li614  1  0.73088146  0.04141119  0.69990462  1
  Li  Li615  1  0.62359175  0.04586400  0.72751764  1
  Li  Li616  1  0.66723000  0.13934795  0.77078244  1
  Li  Li617  1  0.59445614  -0.02510169  0.78798327  1
  Li  Li618  1  0.64326850  -0.12538917  0.85159565  1
  Li  Li619  1  0.76940863  0.10073980  0.87377530  1
  Li  Li620  1  0.71246711  -0.08743816  0.95158793  1
  Li  Li621  1  0.62160008  0.16002979  0.64386072  1
  Li  Li622  1  0.76919159  0.24319299  0.67058961  1
  Li  Li623  1  0.77251503  0.22061802  0.70641094  1
  Li  Li624  1  0.64803497  0.20344461  0.70196850  1
  Li  Li625  1  0.60764396  0.22723919  0.73742990  1
  Li  Li626  1  0.60104614  0.15196728  0.80746393  1
  Li  Li627  1  0.58162491  0.05382654  0.86787624  1
  Li  Li628  1  0.74626553  0.22757535  0.90524612  1
  Li  Li629  1  0.74115700  0.12080512  0.93933900  1
  Li  Li630  1  0.68976222  0.29909066  0.64721219  1
  Li  Li631  1  0.80549766  0.40512760  0.66197767  1
  Li  Li632  1  0.70203802  0.37443403  0.67287577  1
  Li  Li633  1  0.67410020  0.36853753  0.71057295  1
  Li  Li634  1  0.62806669  0.38211642  0.75722674  1
  Li  Li635  1  0.78279117  0.28804603  0.77373915  1
  Li  Li636  1  0.59407648  0.25497315  0.87021228  1
  Li  Li637  1  0.76374014  0.40742385  0.92476821  1
  Li  Li638  1  0.73301667  0.28245613  0.96609340  1
  Li  Li639  1  0.69095786  0.48852435  0.64461856  1
  Li  Li640  1  0.82070349  0.58929522  0.66223494  1
  Li  Li641  1  0.73056254  0.54537086  0.67597703  1
  Li  Li642  1  0.69399127  0.52975653  0.69785486  1
  Li  Li643  1  0.76354955  0.49853460  0.73510585  1
  Li  Li644  1  0.70296650  0.48198205  0.82379028  1
  Li  Li645  1  0.60892216  0.48064122  0.86079352  1
  Li  Li646  1  0.71188662  0.56266708  0.89789405  1
  Li  Li647  1  0.63487148  0.46721814  0.95560989  1
  Li  Li648  1  0.65990655  0.66046673  0.65224038  1
  Li  Li649  1  0.77109643  0.77527870  0.66396245  1
  Li  Li650  1  0.74394714  0.71246451  0.68338662  1
  Li  Li651  1  0.72197802  0.66370383  0.72159244  1
  Li  Li652  1  0.80248815  0.80267681  0.74742376  1
  Li  Li653  1  0.73113902  0.66524063  0.80545015  1
  Li  Li654  1  0.63103041  0.67445386  0.83921636  1
  Li  Li655  1  0.85549302  0.71336915  0.88631904  1
  Li  Li656  1  0.71353978  0.68074568  0.96155744  1
  Li  Li657  1  0.62801215  0.86493219  0.65319463  1
  Li  Li658  1  0.76938485  0.93920351  0.67085891  1
  Li  Li659  1  0.71625348  0.87962480  0.68875305  1
  Li  Li660  1  0.68157796  0.85378471  0.72249180  1
  Li  Li661  1  0.71235955  0.95713321  0.75765479  1
  Li  Li662  1  0.61960533  0.77893951  0.77941020  1
  Li  Li663  1  0.49928027  0.73673398  0.80899826  1
  Li  Li664  1  0.81547643  0.90103369  0.87267078  1
  Li  Li665  1  0.73459728  0.77752486  0.91753478  1
  Li  Li666  1  0.81071980  0.00048530  0.65246096  1
  Li  Li667  1  0.91584005  0.11971973  0.66672380  1
  Li  Li668  1  0.92066206  0.08541493  0.69899575  1
  Li  Li669  1  0.83457390  -0.04137743  0.72440193  1
  Li  Li670  1  0.86875559  0.09867544  0.77392538  1
  Li  Li671  1  0.77893723  0.01403373  0.80101681  1
  Li  Li672  1  0.86748364  -0.07713562  0.83058230  1
  Li  Li673  1  0.99982463  0.00695947  0.87094774  1
  Li  Li674  1  0.73697242  -0.00777654  0.91004438  1
  Li  Li675  1  0.75351030  0.17225987  0.65216611  1
  Li  Li676  1  0.93613404  0.29540855  0.66648772  1
  Li  Li677  1  0.91546455  0.25160924  0.68807159  1
  Li  Li678  1  0.78662771  0.12747705  0.73900910  1
  Li  Li679  1  0.96500657  0.25367312  0.76294556  1
  Li  Li680  1  0.81369813  0.19751974  0.80728970  1
  Li  Li681  1  0.69983664  0.05368149  0.83597306  1
  Li  Li682  1  0.91159916  0.23247177  0.86740461  1
  Li  Li683  1  1.01896754  0.16675315  0.96876850  1
  Li  Li684  1  0.88393765  0.28132672  0.64617820  1
  Li  Li685  1  0.94801489  0.47493848  0.67696804  1
  Li  Li686  1  0.80373384  0.38636985  0.68489038  1
  Li  Li687  1  0.79902249  0.31594844  0.73820059  1
  Li  Li688  1  0.90191164  0.44434714  0.76130436  1
  Li  Li689  1  0.87331099  0.39096596  0.80397336  1
  Li  Li690  1  0.73429543  0.26191458  0.84035584  1
  Li  Li691  1  0.94512359  0.31747051  0.90281460  1
  Li  Li692  1  0.90293799  0.26783123  0.93956438  1
  Li  Li693  1  0.87675283  0.52127302  0.64622913  1
  Li  Li694  1  0.96603466  0.58747128  0.65674671  1
  Li  Li695  1  0.87946838  0.59084743  0.70013999  1
  Li  Li696  1  0.84798864  0.41030094  0.70622030  1
  Li  Li697  1  0.89674055  0.61352538  0.78502490  1
  Li  Li698  1  0.73933280  0.48420360  0.78254809  1
  Li  Li699  1  0.76628729  0.37122930  0.87866703  1
  Li  Li700  1  0.90681279  0.50804149  0.89169540  1
  Li  Li701  1  0.87301198  0.47009942  0.96176968  1
  Li  Li702  1  0.84630827  0.66307762  0.64486483  1
  Li  Li703  1  1.04593251  0.68394773  0.65627496  1
  Li  Li704  1  0.92924271  0.73389413  0.67580842  1
  Li  Li705  1  0.88949140  0.64317057  0.74175961  1
  Li  Li706  1  1.00694340  0.82202097  0.73504854  1
  Li  Li707  1  0.74169878  0.64637070  0.76423644  1
  Li  Li708  1  0.78234262  0.57547338  0.86021198  1
  Li  Li709  1  0.99880146  0.67645903  0.91521334  1
  Li  Li710  1  0.82751817  0.60140138  0.93061557  1
  Li  Li711  1  0.86004122  0.82967809  0.65140895  1
  Li  Li712  1  0.95801700  0.93750615  0.67167176  1
  Li  Li713  1  0.90280573  0.89946581  0.69156023  1
  Li  Li714  1  0.86541743  0.76725667  0.71196481  1
  Li  Li715  1  0.93911774  0.95325419  0.75671200  1
  Li  Li716  1  0.80935322  0.84057636  0.78447276  1
  Li  Li717  1  0.68482248  0.84662794  0.81535446  1
  Li  Li718  1  0.91856112  0.88548977  0.90934150  1
  Li  Li719  1  0.90150684  0.79183573  0.94751438  1
  La  La720  1  0.26978602  0.98915527  0.19499987  1
  La  La721  1  0.76808387  0.47902129  0.19704563  1
  La  La722  1  0.86893075  0.76082569  0.21521755  1
  La  La723  1  0.38321549  0.76565085  0.21591162  1
  La  La724  1  0.63070548  0.26580288  0.21872323  1
  La  La725  1  0.12409426  0.24849862  0.21615616  1
  La  La726  1  0.75460996  1.01066633  0.23724015  1
  La  La727  1  0.26073282  0.51601015  0.23827740  1
  La  La728  1  0.51763634  0.12829088  0.26122553  1
  La  La729  1  0.01435200  0.38258438  0.25864762  1
  La  La730  1  0.50200399  0.63291532  0.25878553  1
  La  La731  1  1.00866673  0.88453446  0.26141399  1
  La  La732  1  0.76526602  0.51283090  0.28032839  1
  La  La733  1  0.25800460  1.00896208  0.28385269  1
  La  La734  1  0.38310590  0.25084213  0.30452391  1
  La  La735  1  0.89225156  0.25799541  0.30492368  1
  La  La736  1  0.13134861  0.75695670  0.30480921  1
  La  La737  1  0.63189477  0.75632583  0.30401056  1
  La  La738  1  0.25683889  0.49912163  0.32618064  1
  La  La739  1  0.76443262  0.99834874  0.32966526  1
  La  La740  1  1.00830781  0.62515177  0.34891183  1
  La  La741  1  0.50991235  0.86338284  0.34898509  1
  La  La742  1  0.00916024  0.13248966  0.35093697  1
  La  La743  1  0.51976253  0.38126821  0.34762620  1
  La  La744  1  0.25793833  0.98973325  0.37082046  1
  La  La745  1  0.75985942  0.50576809  0.37127344  1
  La  La746  1  0.88081655  0.77230641  0.39404651  1
  La  La747  1  0.39093466  0.73629170  0.39265521  1
  La  La748  1  0.64024036  0.24921884  0.39149589  1
  La  La749  1  0.12111056  0.27014602  0.39409448  1
  La  La750  1  0.76442807  0.01442220  0.41393039  1
  La  La751  1  0.26993033  0.52142801  0.41653454  1
  Zr  Zr752  1  0.98491233  0.00611343  0.21230692  1
  Zr  Zr753  1  0.51417061  0.02202884  0.21387175  1
  Zr  Zr754  1  0.50220176  0.50582441  0.21246794  1
  Zr  Zr755  1  0.01980234  0.48910046  0.21187277  1
  Zr  Zr756  1  0.76453584  0.25379475  0.26280790  1
  Zr  Zr757  1  0.75742377  0.76040716  0.26028096  1
  Zr  Zr758  1  0.25555241  0.23835179  0.25954994  1
  Zr  Zr759  1  0.25497673  0.76467464  0.26044916  1
  Zr  Zr760  1  0.50957495  0.50647206  0.30388744  1
  Zr  Zr761  1  0.01257468  0.50583381  0.30374936  1
  Zr  Zr762  1  0.01319620  0.00509093  0.30739499  1
  Zr  Zr763  1  0.50303925  1.00302572  0.30768098  1
  Zr  Zr764  1  0.25589520  0.74377306  0.34988490  1
  Zr  Zr765  1  0.25676693  0.27160323  0.35159821  1
  Zr  Zr766  1  0.76027725  0.75208075  0.35071061  1
  Zr  Zr767  1  0.76508102  0.25258328  0.34899027  1
  Zr  Zr768  1  0.02228866  0.01057468  0.39618139  1
  Zr  Zr769  1  0.49100493  1.00894281  0.39552469  1
  Zr  Zr770  1  0.51916114  0.48660085  0.39517622  1
  Zr  Zr771  1  0.99290331  0.50382497  0.39751512  1
  O  O772  1  0.83900722  0.94367463  0.20903402  1
  O  O773  1  0.66362313  0.08163506  0.20883553  1
  O  O774  1  0.17363322  0.42688247  0.20970367  1
  O  O775  1  0.35108442  0.55512087  0.20822957  1
  O  O776  1  0.36856702  0.95701072  0.22109206  1
  O  O777  1  0.14451084  0.05714435  0.21403611  1
  O  O778  1  0.65164131  0.45787525  0.22480838  1
  O  O779  1  0.87850426  0.54506008  0.22244362  1
  O  O780  1  0.48649170  0.16384220  0.22913643  1
  O  O781  1  0.03382013  0.85697834  0.21335072  1
  O  O782  1  0.99476635  0.34691182  0.22693473  1
  O  O783  1  0.52943157  0.65410316  0.22581011  1
  O  O784  1  0.79921549  0.18777377  0.23738521  1
  O  O785  1  0.72102746  0.81911814  0.23439787  1
  O  O786  1  0.28688584  0.25339410  0.23015068  1
  O  O787  1  0.23120146  0.71172834  0.23311163  1
  O  O788  1  0.96302125  0.01812015  0.24007291  1
  O  O789  1  0.57687686  0.99347946  0.24283168  1
  O  O790  1  0.07661228  0.53704219  0.24268974  1
  O  O791  1  0.43878102  0.47043584  0.24306924  1
  O  O792  1  0.10384865  0.20436390  0.25004308  1
  O  O793  1  0.40323843  0.80526407  0.25053783  1
  O  O794  1  0.61749148  0.28862197  0.25325471  1
  O  O795  1  0.90732300  0.73458914  0.24975553  1
  O  O796  1  0.30053357  0.08662939  0.25492965  1
  O  O797  1  0.18910689  0.90182902  0.25113399  1
  O  O798  1  0.82764997  0.39465953  0.25753308  1
  O  O799  1  0.70712013  0.61495861  0.25440744  1
  O  O800  1  0.21273867  0.38741042  0.26132821  1
  O  O801  1  0.31798782  0.62276931  0.26452128  1
  O  O802  1  0.70334855  0.10835916  0.27019107  1
  O  O803  1  0.81233245  0.91145057  0.26722425  1
  O  O804  1  0.40502094  0.27150404  0.27150588  1
  O  O805  1  0.10347796  0.73413698  0.27192159  1
  O  O806  1  0.91250686  0.20516368  0.27310157  1
  O  O807  1  0.60838978  0.79902913  0.27071420  1
  O  O808  1  0.95985966  0.54264829  0.27647096  1
  O  O809  1  0.55630764  0.47940379  0.27613703  1
  O  O810  1  0.07024125  0.02049765  0.28046523  1
  O  O811  1  0.44820931  0.98963323  0.28079341  1
  O  O812  1  0.72740014  0.32014208  0.28979087  1
  O  O813  1  0.79579987  0.70342304  0.28747902  1
  O  O814  1  0.22449580  0.19176866  0.28755476  1
  O  O815  1  0.27681659  0.82723768  0.28798465  1
  O  O816  1  0.04244113  0.35870434  0.29623847  1
  O  O817  1  0.47418893  0.65608303  0.29806076  1
  O  O818  1  0.54054920  0.15204139  0.30236229  1
  O  O819  1  0.97691638  0.85669999  0.29869809  1
  O  O820  1  0.35646261  0.45352095  0.29793582  1
  O  O821  1  0.16132901  0.55564388  0.29669578  1
  O  O822  1  0.65484837  0.95521787  0.30259599  1
  O  O823  1  0.86070571  0.04516186  0.30270209  1
  O  O824  1  0.86162222  0.45945968  0.30974682  1
  O  O825  1  0.66273149  0.55628206  0.30897600  1
  O  O826  1  0.15807809  0.95580889  0.31667601  1
  O  O827  1  0.35406104  0.05837638  0.31560564  1
  O  O828  1  0.97489649  0.65050704  0.31561972  1
  O  O829  1  0.54173108  0.36173447  0.31373235  1
  O  O830  1  0.47779420  0.85212862  0.31670832  1
  O  O831  1  0.04416284  0.15170729  0.31719363  1
  O  O832  1  0.28700156  0.68865593  0.32291453  1
  O  O833  1  0.22271933  0.31454773  0.32463376  1
  O  O834  1  0.79620601  0.81250528  0.32449974  1
  O  O835  1  0.72832304  0.18769352  0.32312315  1
  O  O836  1  0.46163191  0.53310051  0.33263828  1
  O  O837  1  0.07279626  0.48683746  0.33198022  1
  O  O838  1  0.55495480  0.02584127  0.33688872  1
  O  O839  1  0.95616595  0.97258189  0.33604836  1
  O  O840  1  0.61211901  0.71434854  0.34093914  1
  O  O841  1  0.91406900  0.29891795  0.34009287  1
  O  O842  1  0.10622565  0.77947520  0.34183750  1
  O  O843  1  0.40566999  0.23607857  0.34387729  1
  O  O844  1  0.80866872  0.60204219  0.34416030  1
  O  O845  1  0.71310896  0.40176615  0.34291744  1
  O  O846  1  0.32483907  0.88710444  0.34748990  1
  O  O847  1  0.20771870  0.12356151  0.35079544  1
  O  O848  1  0.70986334  0.89407696  0.35818115  1
  O  O849  1  0.82367915  0.11399904  0.35584971  1
  O  O850  1  0.19388330  0.60747164  0.35942411  1
  O  O851  1  0.30157883  0.42261631  0.35603893  1
  O  O852  1  0.91427850  0.78574415  0.36070465  1
  O  O853  1  0.61669487  0.21710551  0.35839667  1
  O  O854  1  0.40317392  0.70035602  0.36053965  1
  O  O855  1  0.10551817  0.30899752  0.36142417  1
  O  O856  1  0.43298852  0.05161663  0.36959467  1
  O  O857  1  0.07495066  0.97380927  0.36810675  1
  O  O858  1  0.58033741  0.51857004  0.36873532  1
  O  O859  1  0.94997620  0.48682613  0.37011510  1
  O  O860  1  0.22815322  0.79909683  0.37717928  1
  O  O861  1  0.29192834  0.25361302  0.38281860  1
  O  O862  1  0.75081578  0.68682480  0.37784624  1
  O  O863  1  0.78583046  0.31774653  0.37661518  1
  O  O864  1  0.52701481  0.84926573  0.38737302  1
  O  O865  1  0.99444395  0.15690694  0.38451172  1
  O  O866  1  0.02184727  0.65024590  0.39153718  1
  O  O867  1  0.48867486  0.34525248  0.38161182  1
  O  O868  1  0.87434348  0.96370264  0.38855803  1
  O  O869  1  0.64294916  0.03933127  0.38725152  1
  O  O870  1  0.14684230  0.45964119  0.39506434  1
  O  O871  1  0.37350545  0.54559158  0.39033237  1
  O  O872  1  0.34551844  0.93826716  0.40200005  1
  O  O873  1  0.17120525  0.08069373  0.40278641  1
  O  O874  1  0.65684361  0.41809603  0.40491694  1
  O  O875  1  0.84478588  0.53427101  0.40600360  1
  O  O876  1  0.41474377  0.08970750  0.19517249  1
  O  O877  1  0.58992826  0.52631358  0.19010388  1
  O  O878  1  0.93886244  0.43447850  0.19047578  1
  O  O879  1  0.24833945  0.82615438  0.19922190  1
  O  O880  1  0.73369028  0.67886365  0.20331026  1
  O  O881  1  0.77354550  0.30088857  0.20115969  1
  O  O882  1  0.55763786  0.88173468  0.20666944  1
  O  O883  1  0.94874943  0.15109382  0.20476848  1
  O  O884  1  0.07953839  0.62392442  0.20435204  1
  O  O885  1  0.46220026  0.35683800  0.20865661  1
  O  O886  1  0.46409376  0.15250785  0.40446192  1
  O  O887  1  0.05484134  0.86306671  0.40138283  1
  O  O888  1  0.95811405  0.34566108  0.40573419  1
  O  O889  1  0.57244323  0.62152193  0.40549400  1
  O  O890  1  0.77804775  0.18492083  0.41035458  1
  O  O891  1  0.72337856  0.83607205  0.40755045  1
  O  O892  1  0.23148843  0.69470932  0.41037618  1
  O  O893  1  0.96443860  0.06333335  0.42142491  1
  O  O894  1  0.54904019  0.97545799  0.42255528  1
  O  O895  1  0.44058945  0.41427306  0.41834046  1
