# generated using pymatgen
data_Li58La3Zr2O12
_symmetry_space_group_name_H-M   'P 1'
_cell_length_a   12.71363444
_cell_length_b   13.21227775
_cell_length_c   74.49548915
_cell_angle_alpha   89.99274091
_cell_angle_beta   90.00022046
_cell_angle_gamma   90.00050652
_symmetry_Int_Tables_number   1
_chemical_formula_structural   Li58La3Zr2O12
_chemical_formula_sum   'Li696 La36 Zr24 O144'
_cell_volume   12513.45936142
_cell_formula_units_Z   12
loop_
 _symmetry_equiv_pos_site_id
 _symmetry_equiv_pos_as_xyz
  1  'x, y, z'
loop_
 _atom_site_type_symbol
 _atom_site_label
 _atom_site_symmetry_multiplicity
 _atom_site_fract_x
 _atom_site_fract_y
 _atom_site_fract_z
 _atom_site_occupancy
  Li  Li0  1  0.90886259  0.91692861  0.21681861  1
  Li  Li1  1  0.57590670  0.07896270  0.21383027  1
  Li  Li2  1  0.08525433  0.44710192  0.21032226  1
  Li  Li3  1  0.29054826  0.60337282  0.20466605  1
  Li  Li4  1  0.53578444  0.64588936  0.21415055  1
  Li  Li5  1  0.92955101  0.34395072  0.22717475  1
  Li  Li6  1  0.09470916  0.83236850  0.21886102  1
  Li  Li7  1  0.41510275  0.18107517  0.22605452  1
  Li  Li8  1  0.69214034  0.91261287  0.22854928  1
  Li  Li9  1  0.80108004  0.07308498  0.22977895  1
  Li  Li10  1  0.03157486  0.63340255  0.21729871  1
  Li  Li11  1  0.24930683  0.49832389  0.22678951  1
  Li  Li12  1  0.87985708  0.23221852  0.25232611  1
  Li  Li13  1  0.63625250  0.74951502  0.24742028  1
  Li  Li14  1  0.37391640  0.27185947  0.24973082  1
  Li  Li15  1  0.13601678  0.74260553  0.24878487  1
  Li  Li16  1  0.32782604  0.10783092  0.26150983  1
  Li  Li17  1  0.19218775  0.89789909  0.26082300  1
  Li  Li18  1  0.81339540  0.41620633  0.26481600  1
  Li  Li19  1  0.69466025  0.58095169  0.26525632  1
  Li  Li20  1  0.44489578  0.33390736  0.28012724  1
  Li  Li21  1  0.06406371  0.66698498  0.27741999  1
  Li  Li22  1  0.96674216  0.15411186  0.28247682  1
  Li  Li23  1  0.55575623  0.83704701  0.27714821  1
  Li  Li24  1  0.36040518  0.92460834  0.27881911  1
  Li  Li25  1  0.16267383  0.06717949  0.27937992  1
  Li  Li26  1  0.61418952  0.42711776  0.28041386  1
  Li  Li27  1  0.89407512  0.57119086  0.28090102  1
  Li  Li28  1  0.35746430  0.43468983  0.30663102  1
  Li  Li29  1  0.14367169  0.56918783  0.30598373  1
  Li  Li30  1  0.64628166  0.93428099  0.30623852  1
  Li  Li31  1  0.85450136  0.06542582  0.30643119  1
  Li  Li32  1  0.06713066  0.16544445  0.30973009  1
  Li  Li33  1  0.45219444  0.83645326  0.30818657  1
  Li  Li34  1  0.55828209  0.33100621  0.30934195  1
  Li  Li35  1  0.95087809  0.67029836  0.30897244  1
  Li  Li36  1  0.19300832  0.41327883  0.32512926  1
  Li  Li37  1  0.31404023  0.59172119  0.32444370  1
  Li  Li38  1  0.69157422  0.09124164  0.32462216  1
  Li  Li39  1  0.81359137  0.90872280  0.32439924  1
  Li  Li40  1  0.38051381  0.75220531  0.33809688  1
  Li  Li41  1  0.12913762  0.24976735  0.33820064  1
  Li  Li42  1  0.87949191  0.74930043  0.33822006  1
  Li  Li43  1  0.62840223  0.25234485  0.33830832  1
  Li  Li44  1  0.81016305  0.58948963  0.35121534  1
  Li  Li45  1  0.69555637  0.41347741  0.35113602  1
  Li  Li46  1  0.30990400  0.91258292  0.35145245  1
  Li  Li47  1  0.19668021  0.08563873  0.35103038  1
  Li  Li48  1  0.95061673  0.83067630  0.36627988  1
  Li  Li49  1  0.55868727  0.17049661  0.36606199  1
  Li  Li50  1  0.45131183  0.66583430  0.36753242  1
  Li  Li51  1  0.06507706  0.33695533  0.36556707  1
  Li  Li52  1  0.85915699  0.43271607  0.36959803  1
  Li  Li53  1  0.64230677  0.57046830  0.36956595  1
  Li  Li54  1  0.13529852  0.92948703  0.36998391  1
  Li  Li55  1  0.36642740  0.07145715  0.36905631  1
  Li  Li56  1  0.88652804  0.93496803  0.39254276  1
  Li  Li57  1  0.61738572  0.06886831  0.39344724  1
  Li  Li58  1  0.15947065  0.43550163  0.39500012  1
  Li  Li59  1  0.36082342  0.56708791  0.39522284  1
  Li  Li60  1  0.55804995  0.66553936  0.39756543  1
  Li  Li61  1  0.96649948  0.34440054  0.39404747  1
  Li  Li62  1  0.06153669  0.83698655  0.39787378  1
  Li  Li63  1  0.44734523  0.16814246  0.39627178  1
  Li  Li64  1  0.69823310  0.91931020  0.41145852  1
  Li  Li65  1  0.80830233  0.09010354  0.41127115  1
  Li  Li66  1  0.19281923  0.58948794  0.41343098  1
  Li  Li67  1  0.32534562  0.40060227  0.41435727  1
  Li  Li68  1  0.87251417  0.26303557  0.42262283  1
  Li  Li69  1  0.64339594  0.75159284  0.42438964  1
  Li  Li70  1  0.37154439  0.23719747  0.42577924  1
  Li  Li71  1  0.13859176  0.74998266  0.42253993  1
  Li  Li72  1  0.18283991  0.90087853  0.43458232  1
  Li  Li73  1  0.03439155  0.84561895  0.45442325  1
  Li  Li74  1  0.80198463  0.42052465  0.44017550  1
  Li  Li75  1  0.70033993  0.59547236  0.44083008  1
  Li  Li76  1  0.43617429  0.34129131  0.44633499  1
  Li  Li77  1  0.07232783  0.66535121  0.44386537  1
  Li  Li78  1  0.93611748  0.17583630  0.44367224  1
  Li  Li79  1  0.57626937  0.82072020  0.44788369  1
  Li  Li80  1  0.41910323  0.91237852  0.45752031  1
  Li  Li81  1  0.10009854  0.05422068  0.45396181  1
  Li  Li82  1  0.59693347  0.42248118  0.45614853  1
  Li  Li83  1  0.88688694  0.58940185  0.45551147  1
  Li  Li84  1  0.01628831  0.02975765  0.52955383  1
  Li  Li85  1  0.07380451  0.13043630  0.55176109  1
  Li  Li86  1  0.17311275  0.10975544  0.56482670  1
  Li  Li87  1  0.10967739  0.00723509  0.58630477  1
  Li  Li88  1  0.15871693  0.04486847  0.60424222  1
  Li  Li89  1  0.08682992  0.11520829  0.62721196  1
  Li  Li90  1  0.16731943  0.01162238  0.64880411  1
  Li  Li91  1  0.08358381  0.05264319  0.66414723  1
  Li  Li92  1  0.16738985  0.10156621  0.67895773  1
  Li  Li93  1  0.11308536  0.92695464  0.48269049  1
  Li  Li94  1  0.03526784  0.09892841  0.50077498  1
  Li  Li95  1  0.03590181  0.23269964  0.52916219  1
  Li  Li96  1  0.17765828  0.27085605  0.56329008  1
  Li  Li97  1  0.08279314  0.18765432  0.58874126  1
  Li  Li98  1  0.16330015  0.21583770  0.60447620  1
  Li  Li99  1  0.08595300  0.28192670  0.62825044  1
  Li  Li100  1  0.16764033  0.17633604  0.64908289  1
  Li  Li101  1  0.08353166  0.21994719  0.66414167  1
  Li  Li102  1  0.16733840  0.26713879  0.67911162  1
  Li  Li103  1  0.98743335  0.14101207  0.47017751  1
  Li  Li104  1  0.04189227  0.36254952  0.50806527  1
  Li  Li105  1  0.10073960  0.38857996  0.54133052  1
  Li  Li106  1  0.14310546  0.43739262  0.56030338  1
  Li  Li107  1  0.10602253  0.36375921  0.58666739  1
  Li  Li108  1  0.17304655  0.38243086  0.60388598  1
  Li  Li109  1  0.08556889  0.44960070  0.62729346  1
  Li  Li110  1  0.16535997  0.34394767  0.64875895  1
  Li  Li111  1  0.08397450  0.38526747  0.66402191  1
  Li  Li112  1  0.16768724  0.43433225  0.67906667  1
  Li  Li113  1  0.12386246  0.24222278  0.48839145  1
  Li  Li114  1  0.96262769  0.49070182  0.52373773  1
  Li  Li115  1  0.09690893  0.56867022  0.54198244  1
  Li  Li116  1  0.18986507  0.60789720  0.55563713  1
  Li  Li117  1  0.10877364  0.51221363  0.57619440  1
  Li  Li118  1  0.17142770  0.54847308  0.60143370  1
  Li  Li119  1  0.08447933  0.61374619  0.62661649  1
  Li  Li120  1  0.16656768  0.51041617  0.64896037  1
  Li  Li121  1  0.08342266  0.55280563  0.66435841  1
  Li  Li122  1  0.16782613  0.60133786  0.67901299  1
  Li  Li123  1  0.02671251  0.54189666  0.49647482  1
  Li  Li124  1  0.98319118  0.67204020  0.52199156  1
  Li  Li125  1  0.08339274  0.74296300  0.54627154  1
  Li  Li126  1  0.16682486  0.78308387  0.56137914  1
  Li  Li127  1  0.06725916  0.68004178  0.57912074  1
  Li  Li128  1  0.16221490  0.71261004  0.60275992  1
  Li  Li129  1  0.08405582  0.78190660  0.62706627  1
  Li  Li130  1  0.16732349  0.67886226  0.64891781  1
  Li  Li131  1  0.08454534  0.71983798  0.66443029  1
  Li  Li132  1  0.16750658  0.76858756  0.67899710  1
  Li  Li133  1  0.03161767  0.64891784  0.47091716  1
  Li  Li134  1  0.96733772  0.84428434  0.53020228  1
  Li  Li135  1  0.10797312  0.92944045  0.54762717  1
  Li  Li136  1  0.14770169  0.95314938  0.56799673  1
  Li  Li137  1  0.04835453  0.84572946  0.58578128  1
  Li  Li138  1  0.16879927  0.87927714  0.60407835  1
  Li  Li139  1  0.08104592  0.94715496  0.62760779  1
  Li  Li140  1  0.16653728  0.84423672  0.64908622  1
  Li  Li141  1  0.08252308  0.88695122  0.66434122  1
  Li  Li142  1  0.16772012  0.93410158  0.67917800  1
  Li  Li143  1  0.22920871  0.78969099  0.45879282  1
  Li  Li144  1  0.18742421  0.98771099  0.51087124  1
  Li  Li145  1  0.22040412  0.06120409  0.53871617  1
  Li  Li146  1  0.29708909  0.12956036  0.56412954  1
  Li  Li147  1  0.25806839  0.98056523  0.57769531  1
  Li  Li148  1  0.32942364  0.03775008  0.60306547  1
  Li  Li149  1  0.24725128  0.11442862  0.62624779  1
  Li  Li150  1  0.33306625  0.01243885  0.64886487  1
  Li  Li151  1  0.24945297  0.05260638  0.66431857  1
  Li  Li152  1  0.33479705  0.10181534  0.67906970  1
  Li  Li153  1  0.27483242  0.01894155  0.44827757  1
  Li  Li154  1  0.19158748  0.15743566  0.51360069  1
  Li  Li155  1  0.22621292  0.23832071  0.54412466  1
  Li  Li156  1  0.33864068  0.24250345  0.56980511  1
  Li  Li157  1  0.23582353  0.13661900  0.58287235  1
  Li  Li158  1  0.33041852  0.20642494  0.60363725  1
  Li  Li159  1  0.24826908  0.28083006  0.62688908  1
  Li  Li160  1  0.33373190  0.17879777  0.64882359  1
  Li  Li161  1  0.25039868  0.21975814  0.66426132  1
  Li  Li162  1  0.33442368  0.26776756  0.67905729  1
  Li  Li163  1  0.21868461  0.08676374  0.47896230  1
  Li  Li164  1  0.21710560  0.32502586  0.51730518  1
  Li  Li165  1  0.21830606  0.43292592  0.54303574  1
  Li  Li166  1  0.31297683  0.38636421  0.56289600  1
  Li  Li167  1  0.24422655  0.29624550  0.58156202  1
  Li  Li168  1  0.33290404  0.37490582  0.60389304  1
  Li  Li169  1  0.24836447  0.44758615  0.62673666  1
  Li  Li170  1  0.33355359  0.34521128  0.64886757  1
  Li  Li171  1  0.24991067  0.38566250  0.66423834  1
  Li  Li172  1  0.33473261  0.43441550  0.67910243  1
  Li  Li173  1  0.23154523  0.25542739  0.45992877  1
  Li  Li174  1  0.16719099  0.49222449  0.51476802  1
  Li  Li175  1  0.30645596  0.56606966  0.53159462  1
  Li  Li176  1  0.35862943  0.54799786  0.55175056  1
  Li  Li177  1  0.28531389  0.46662773  0.57830781  1
  Li  Li178  1  0.33383277  0.54109849  0.60403060  1
  Li  Li179  1  0.24883476  0.61241141  0.62749163  1
  Li  Li180  1  0.33437048  0.51131881  0.64902530  1
  Li  Li181  1  0.24962923  0.55290704  0.66416176  1
  Li  Li182  1  0.33415675  0.60131336  0.67903873  1
  Li  Li183  1  0.21252173  0.40911516  0.48743113  1
  Li  Li184  1  0.15918466  0.66148506  0.51641325  1
  Li  Li185  1  0.26672964  0.74483981  0.53681260  1
  Li  Li186  1  0.34438651  0.72784276  0.55465607  1
  Li  Li187  1  0.24239045  0.63486606  0.57531443  1
  Li  Li188  1  0.32633688  0.70266552  0.60316500  1
  Li  Li189  1  0.25097917  0.78133098  0.62671389  1
  Li  Li190  1  0.33465958  0.67930317  0.64898547  1
  Li  Li191  1  0.25035071  0.71970520  0.66450705  1
  Li  Li192  1  0.33390895  0.76859786  0.67904671  1
  Li  Li193  1  0.19608578  0.59077606  0.48665609  1
  Li  Li194  1  0.13114464  0.83497289  0.51983348  1
  Li  Li195  1  0.27838541  0.90644463  0.54885230  1
  Li  Li196  1  0.37952106  0.90001701  0.56235172  1
  Li  Li197  1  0.23407301  0.80925892  0.57915051  1
  Li  Li198  1  0.33008427  0.87506212  0.60284850  1
  Li  Li199  1  0.24889591  0.94840728  0.62719565  1
  Li  Li200  1  0.33454046  0.84500693  0.64901997  1
  Li  Li201  1  0.25036833  0.88736205  0.66442431  1
  Li  Li202  1  0.33406447  0.93436781  0.67913559  1
  Li  Li203  1  0.19213649  0.77026179  0.49182344  1
  Li  Li204  1  0.37618149  0.02332855  0.52429347  1
  Li  Li205  1  0.37753543  0.05223734  0.55459669  1
  Li  Li206  1  0.50331622  0.11472482  0.56619026  1
  Li  Li207  1  0.42085420  0.95484096  0.58034019  1
  Li  Li208  1  0.50041401  0.04464027  0.60408697  1
  Li  Li209  1  0.41439263  0.11516379  0.62661672  1
  Li  Li210  1  0.50029460  0.01235712  0.64903802  1
  Li  Li211  1  0.41581558  0.05320671  0.66443951  1
  Li  Li212  1  0.50095439  0.10164808  0.67908255  1
  Li  Li213  1  0.31258413  0.91730662  0.48254857  1
  Li  Li214  1  0.36371632  0.20355575  0.51883844  1
  Li  Li215  1  0.40449588  0.16025707  0.54503769  1
  Li  Li216  1  0.45726931  0.27774149  0.56478843  1
  Li  Li217  1  0.41935207  0.12547464  0.58211326  1
  Li  Li218  1  0.50271313  0.21677902  0.60395017  1
  Li  Li219  1  0.41634479  0.28288797  0.62682654  1
  Li  Li220  1  0.50015395  0.17919633  0.64898674  1
  Li  Li221  1  0.41621815  0.21973133  0.66441929  1
  Li  Li222  1  0.50139792  0.26803755  0.67910515  1
  Li  Li223  1  0.36046391  0.07406079  0.49538059  1
  Li  Li224  1  0.33256467  0.38454692  0.51515853  1
  Li  Li225  1  0.36914385  0.35003687  0.54461301  1
  Li  Li226  1  0.45940640  0.45594676  0.56795741  1
  Li  Li227  1  0.41087041  0.30762241  0.58366307  1
  Li  Li228  1  0.50568395  0.38533228  0.60534662  1
  Li  Li229  1  0.41582018  0.44988706  0.62714032  1
  Li  Li230  1  0.50064596  0.34534439  0.64902431  1
  Li  Li231  1  0.41664515  0.38645059  0.66433554  1
  Li  Li232  1  0.50132772  0.43464105  0.67907392  1
  Li  Li233  1  0.31885293  0.25964614  0.49025999  1
  Li  Li234  1  0.35270635  0.53146047  0.49912860  1
  Li  Li235  1  0.42305244  0.50822890  0.53390266  1
  Li  Li236  1  0.51337051  0.62094329  0.56708598  1
  Li  Li237  1  0.46291719  0.46431684  0.58917186  1
  Li  Li238  1  0.50520595  0.54435457  0.60352789  1
  Li  Li239  1  0.41833066  0.61298898  0.62716214  1
  Li  Li240  1  0.50190641  0.51204081  0.64886531  1
  Li  Li241  1  0.41863395  0.55310367  0.66425513  1
  Li  Li242  1  0.50071598  0.60077961  0.67906320  1
  Li  Li243  1  0.41306479  0.40872556  0.47613943  1
  Li  Li244  1  0.33536672  0.69695436  0.50728043  1
  Li  Li245  1  0.42422673  0.69820805  0.53827144  1
  Li  Li246  1  0.50084703  0.78460992  0.56824354  1
  Li  Li247  1  0.41350602  0.61863389  0.58006419  1
  Li  Li248  1  0.49464488  0.70835075  0.60404328  1
  Li  Li249  1  0.41691554  0.78125300  0.62655205  1
  Li  Li250  1  0.50165229  0.67877786  0.64894582  1
  Li  Li251  1  0.41846793  0.71944560  0.66452364  1
  Li  Li252  1  0.49980875  0.76825677  0.67912490  1
  Li  Li253  1  0.51705539  0.64514151  0.45642287  1
  Li  Li254  1  0.31857842  0.86629038  0.51503799  1
  Li  Li255  1  0.42546533  0.88590317  0.54206345  1
  Li  Li256  1  0.55209599  0.95055805  0.56274164  1
  Li  Li257  1  0.40076196  0.78296450  0.58149909  1
  Li  Li258  1  0.50241581  0.87856909  0.60450385  1
  Li  Li259  1  0.41549147  0.94771125  0.62671143  1
  Li  Li260  1  0.50143167  0.84555310  0.64893454  1
  Li  Li261  1  0.41789890  0.88668490  0.66454424  1
  Li  Li262  1  0.50025715  0.93474710  0.67911832  1
  Li  Li263  1  0.35166776  0.67020601  0.47100876  1
  Li  Li264  1  0.50164905  0.95486475  0.50303105  1
  Li  Li265  1  0.54200918  0.04231958  0.53799146  1
  Li  Li266  1  0.62466187  0.13714389  0.56140967  1
  Li  Li267  1  0.59042538  0.00022952  0.58114788  1
  Li  Li268  1  0.66650705  0.04905142  0.60414458  1
  Li  Li269  1  0.58337764  0.11533409  0.62733765  1
  Li  Li270  1  0.66824748  0.01164191  0.64896871  1
  Li  Li271  1  0.58517465  0.05310679  0.66447936  1
  Li  Li272  1  0.66675432  0.10200261  0.67905923  1
  Li  Li273  1  0.59967642  0.90227566  0.47516742  1
  Li  Li274  1  0.52548248  0.12373378  0.50999468  1
  Li  Li275  1  0.56414700  0.24203039  0.55508928  1
  Li  Li276  1  0.69800181  0.30466061  0.57245732  1
  Li  Li277  1  0.57555624  0.17355001  0.58077384  1
  Li  Li278  1  0.67065951  0.22217540  0.60245087  1
  Li  Li279  1  0.58677405  0.28116808  0.62749083  1
  Li  Li280  1  0.66835516  0.17745651  0.64917279  1
  Li  Li281  1  0.58436032  0.22080205  0.66446578  1
  Li  Li282  1  0.66719469  0.26789409  0.67912413  1
  Li  Li283  1  0.65749630  0.06612418  0.48621545  1
  Li  Li284  1  0.50864018  0.29572501  0.52778903  1
  Li  Li285  1  0.56821022  0.41009121  0.54895183  1
  Li  Li286  1  0.62490106  0.48177017  0.56395253  1
  Li  Li287  1  0.58580265  0.34322527  0.58003199  1
  Li  Li288  1  0.67240433  0.38005982  0.60465205  1
  Li  Li289  1  0.58540772  0.44923594  0.62776784  1
  Li  Li290  1  0.66806500  0.34375846  0.64896638  1
  Li  Li291  1  0.58598779  0.38663860  0.66430928  1
  Li  Li292  1  0.66660580  0.43462935  0.67906246  1
  Li  Li293  1  0.51484012  0.27654584  0.49636531  1
  Li  Li294  1  0.51037160  0.44014936  0.50910154  1
  Li  Li295  1  0.55375464  0.60433882  0.54652313  1
  Li  Li296  1  0.63512339  0.66149964  0.56707693  1
  Li  Li297  1  0.62149597  0.51363663  0.58480212  1
  Li  Li298  1  0.67118213  0.54714591  0.60362760  1
  Li  Li299  1  0.58374875  0.61410236  0.62610360  1
  Li  Li300  1  0.66355487  0.50993105  0.64844722  1
  Li  Li301  1  0.58671331  0.55301401  0.66424615  1
  Li  Li302  1  0.66728864  0.60082201  0.67899081  1
  Li  Li303  1  0.65044491  0.38249090  0.48910851  1
  Li  Li304  1  0.50224410  0.62216310  0.51098399  1
  Li  Li305  1  0.56071195  0.78628635  0.54928499  1
  Li  Li306  1  0.65177377  0.83056981  0.57399653  1
  Li  Li307  1  0.60382827  0.67581074  0.58732399  1
  Li  Li308  1  0.66365866  0.71678137  0.60401823  1
  Li  Li309  1  0.58535604  0.78058370  0.62704596  1
  Li  Li310  1  0.67058324  0.67683030  0.64869194  1
  Li  Li311  1  0.58508994  0.71956871  0.66423576  1
  Li  Li312  1  0.66723234  0.76711355  0.67902247  1
  Li  Li313  1  0.52790972  0.54273809  0.48222326  1
  Li  Li314  1  0.49043546  0.80020458  0.51708036  1
  Li  Li315  1  0.59566570  0.93203988  0.53309790  1
  Li  Li316  1  0.67509063  0.97550194  0.55901719  1
  Li  Li317  1  0.54771433  0.83762475  0.58625824  1
  Li  Li318  1  0.66902634  0.88012877  0.60315132  1
  Li  Li319  1  0.58526860  0.94817597  0.62710168  1
  Li  Li320  1  0.66905268  0.84521766  0.64892571  1
  Li  Li321  1  0.58583234  0.88587683  0.66428816  1
  Li  Li322  1  0.66617638  0.93454169  0.67916388  1
  Li  Li323  1  0.47018592  0.77186310  0.48495425  1
  Li  Li324  1  0.69277601  0.03486232  0.51415390  1
  Li  Li325  1  0.73695997  0.04958102  0.54468537  1
  Li  Li326  1  0.78758222  0.09837048  0.56327266  1
  Li  Li327  1  0.75901970  0.96485837  0.58231086  1
  Li  Li328  1  0.83678526  0.04501089  0.60376656  1
  Li  Li329  1  0.75271579  0.11435959  0.62730004  1
  Li  Li330  1  0.83599426  0.01092276  0.64883648  1
  Li  Li331  1  0.75185949  0.05299577  0.66426875  1
  Li  Li332  1  0.83383355  0.10196920  0.67897177  1
  Li  Li333  1  0.78119097  0.92558213  0.49140239  1
  Li  Li334  1  0.64577229  0.17960480  0.53047910  1
  Li  Li335  1  0.73571336  0.23044023  0.54332014  1
  Li  Li336  1  0.81922506  0.27377560  0.56625831  1
  Li  Li337  1  0.74596506  0.13890535  0.58195406  1
  Li  Li338  1  0.84051398  0.20933410  0.60520673  1
  Li  Li339  1  0.75219473  0.28109723  0.62749538  1
  Li  Li340  1  0.83461368  0.17697919  0.64907555  1
  Li  Li341  1  0.75219600  0.22090277  0.66437949  1
  Li  Li342  1  0.83391416  0.26749067  0.67913344  1
  Li  Li343  1  0.84087470  0.08975974  0.49219709  1
  Li  Li344  1  0.67589361  0.35544998  0.51974195  1
  Li  Li345  1  0.74869192  0.39903830  0.54723993  1
  Li  Li346  1  0.80120510  0.44785332  0.56492705  1
  Li  Li347  1  0.79804032  0.31742896  0.58592084  1
  Li  Li348  1  0.84185551  0.37362839  0.60305107  1
  Li  Li349  1  0.75255793  0.44633657  0.62708769  1
  Li  Li350  1  0.83483069  0.34447271  0.64885963  1
  Li  Li351  1  0.75130690  0.38660619  0.66407691  1
  Li  Li352  1  0.83425572  0.43383684  0.67908447  1
  Li  Li353  1  0.71604796  0.21591316  0.50248548  1
  Li  Li354  1  0.64192982  0.52140864  0.52819775  1
  Li  Li355  1  0.73643640  0.58966501  0.55134489  1
  Li  Li356  1  0.86573093  0.60341795  0.56881291  1
  Li  Li357  1  0.74177765  0.47073465  0.58325454  1
  Li  Li358  1  0.83492061  0.53995744  0.60511504  1
  Li  Li359  1  0.74651143  0.61418224  0.62669477  1
  Li  Li360  1  0.83228127  0.51160109  0.64891892  1
  Li  Li361  1  0.75227001  0.55301934  0.66424074  1
  Li  Li362  1  0.83504799  0.60170217  0.67902260  1
  Li  Li363  1  0.68206618  0.53947868  0.50718342  1
  Li  Li364  1  0.63802148  0.70288966  0.52492849  1
  Li  Li365  1  0.71984649  0.71137217  0.55344993  1
  Li  Li366  1  0.85190230  0.76724213  0.56809352  1
  Li  Li367  1  0.76912796  0.63099470  0.58155920  1
  Li  Li368  1  0.83076890  0.70510232  0.60440543  1
  Li  Li369  1  0.75175099  0.78063063  0.62606101  1
  Li  Li370  1  0.83372754  0.67718980  0.64898427  1
  Li  Li371  1  0.75035377  0.71944792  0.66406757  1
  Li  Li372  1  0.83481783  0.76749463  0.67903565  1
  Li  Li373  1  0.74693852  0.51360037  0.47389656  1
  Li  Li374  1  0.65489671  0.84816885  0.50768063  1
  Li  Li375  1  0.73422079  0.81736398  0.54237616  1
  Li  Li376  1  0.79242862  0.92581749  0.56252940  1
  Li  Li377  1  0.75870791  0.79162873  0.58189323  1
  Li  Li378  1  0.83937560  0.87258340  0.60405010  1
  Li  Li379  1  0.75341433  0.94767865  0.62627780  1
  Li  Li380  1  0.83934610  0.84372495  0.64806695  1
  Li  Li381  1  0.74938653  0.88603407  0.66427975  1
  Li  Li382  1  0.83485947  0.93368421  0.67906923  1
  Li  Li383  1  0.66100457  0.69040532  0.48893613  1
  Li  Li384  1  0.82468370  0.94169428  0.52713231  1
  Li  Li385  1  0.89226425  0.06288440  0.55239694  1
  Li  Li386  1  0.02720119  0.13134249  0.57204704  1
  Li  Li387  1  0.92859228  0.98154621  0.58120860  1
  Li  Li388  1  0.00106647  0.05517388  0.60404261  1
  Li  Li389  1  0.92135328  0.11356617  0.62741082  1
  Li  Li390  1  0.00379725  0.01006022  0.64861565  1
  Li  Li391  1  0.91795586  0.05276557  0.66419301  1
  Li  Li392  1  0.00077519  0.10171965  0.67887949  1
  Li  Li393  1  0.93232743  0.96792382  0.47230966  1
  Li  Li394  1  0.85982083  0.13034991  0.52323599  1
  Li  Li395  1  0.90515352  0.22202894  0.55310801  1
  Li  Li396  1  0.05193370  0.29001431  0.56476937  1
  Li  Li397  1  0.91695673  0.14946313  0.58206839  1
  Li  Li398  1  0.00868574  0.22114015  0.60518591  1
  Li  Li399  1  0.91913724  0.28007490  0.62787461  1
  Li  Li400  1  0.00091196  0.17591848  0.64905595  1
  Li  Li401  1  0.91887894  0.22018104  0.66421445  1
  Li  Li402  1  0.00067758  0.26684860  0.67904403  1
  Li  Li403  1  0.95850284  0.93912353  0.50426678  1
  Li  Li404  1  0.85653960  0.31067368  0.52318835  1
  Li  Li405  1  0.93151700  0.38400529  0.54755488  1
  Li  Li406  1  0.97464496  0.45115465  0.56393266  1
  Li  Li407  1  0.96268643  0.30761281  0.57957693  1
  Li  Li408  1  0.00379853  0.38427591  0.60659804  1
  Li  Li409  1  0.91816889  0.44706197  0.62707264  1
  Li  Li410  1  0.00071711  0.34419335  0.64869767  1
  Li  Li411  1  0.91769988  0.38543569  0.66396296  1
  Li  Li412  1  0.00098287  0.43432146  0.67895459  1
  Li  Li413  1  0.92015913  0.24281300  0.49711280  1
  Li  Li414  1  0.83178469  0.48791518  0.52575241  1
  Li  Li415  1  0.91390090  0.57704261  0.54931248  1
  Li  Li416  1  0.98828539  0.62829285  0.56483766  1
  Li  Li417  1  0.93432194  0.47767045  0.58347333  1
  Li  Li418  1  0.00869515  0.55610285  0.60167929  1
  Li  Li419  1  0.91711237  0.61257214  0.62705725  1
  Li  Li420  1  0.00025615  0.51137154  0.64890823  1
  Li  Li421  1  0.91631951  0.55287268  0.66406478  1
  Li  Li422  1  0.00140936  0.60115665  0.67900610  1
  Li  Li423  1  0.83974179  0.41307727  0.49636377  1
  Li  Li424  1  0.80574813  0.65479836  0.52667600  1
  Li  Li425  1  0.89202374  0.74007754  0.54856122  1
  Li  Li426  1  0.00161677  0.82992621  0.56615439  1
  Li  Li427  1  0.88967848  0.66132787  0.58728855  1
  Li  Li428  1  -0.01083979  0.72155336  0.60499809  1
  Li  Li429  1  0.91570176  0.78086975  0.62763957  1
  Li  Li430  1  0.00060908  0.67795835  0.64903791  1
  Li  Li431  1  0.91603066  0.71944191  0.66423854  1
  Li  Li432  1  0.00133634  0.76848575  0.67904802  1
  Li  Li433  1  0.85542150  0.61197897  0.49662487  1
  Li  Li434  1  0.82338409  0.78529912  0.50930551  1
  Li  Li435  1  0.91436486  0.90508914  0.55700224  1
  Li  Li436  1  0.00536382  0.98594571  0.56420726  1
  Li  Li437  1  0.87930304  0.82899270  0.58559183  1
  Li  Li438  1  0.00673164  0.88780600  0.60415445  1
  Li  Li439  1  0.92041098  0.94757298  0.62615652  1
  Li  Li440  1  -0.00026575  0.84355556  0.64909720  1
  Li  Li441  1  0.91524464  0.88598581  0.66413623  1
  Li  Li442  1  0.00151119  0.93407704  0.67913299  1
  Li  Li443  1  0.99327086  0.76980833  0.49459124  1
  Li  Li444  1  0.00080396  0.02089109  0.70998594  1
  Li  Li445  1  0.08424105  0.06643722  0.72515751  1
  Li  Li446  1  0.16753447  0.11139642  0.74010719  1
  Li  Li447  1  0.08420493  0.01157688  0.76061847  1
  Li  Li448  1  0.16753885  0.04253425  0.77652310  1
  Li  Li449  1  0.08420301  0.12015548  0.80455349  1
  Li  Li450  1  0.08427648  -0.01984360  0.69441122  1
  Li  Li451  1  0.00087018  0.18756424  0.70997350  1
  Li  Li452  1  0.08416226  0.23320215  0.72519033  1
  Li  Li453  1  0.16751323  0.27804628  0.74010271  1
  Li  Li454  1  0.08420242  0.17824069  0.76061739  1
  Li  Li455  1  0.16753507  0.20919927  0.77652232  1
  Li  Li456  1  0.08420243  0.28682370  0.80455449  1
  Li  Li457  1  0.08417787  0.14674608  0.69431914  1
  Li  Li458  1  0.00099904  0.35422743  0.70995831  1
  Li  Li459  1  0.08412629  0.39982763  0.72518268  1
  Li  Li460  1  0.16755187  0.44469272  0.74010431  1
  Li  Li461  1  0.08420319  0.34490529  0.76061565  1
  Li  Li462  1  0.16753635  0.37587123  0.77652120  1
  Li  Li463  1  0.08420259  0.45349232  0.80455418  1
  Li  Li464  1  0.08402181  0.31310995  0.69433940  1
  Li  Li465  1  0.00086893  0.52088053  0.70997576  1
  Li  Li466  1  0.08416465  0.56655172  0.72520537  1
  Li  Li467  1  0.16756884  0.61135773  0.74010257  1
  Li  Li468  1  0.08420363  0.51157388  0.76061597  1
  Li  Li469  1  0.16753971  0.54254056  0.77652134  1
  Li  Li470  1  0.08420293  0.62015851  0.80455325  1
  Li  Li471  1  0.08419249  0.47980782  0.69435763  1
  Li  Li472  1  0.00066603  0.68758052  0.70998780  1
  Li  Li473  1  0.08417309  0.73315521  0.72518261  1
  Li  Li474  1  0.16757470  0.77803998  0.74010953  1
  Li  Li475  1  0.08419826  0.67824391  0.76061843  1
  Li  Li476  1  0.16753492  0.70920695  0.77652179  1
  Li  Li477  1  0.08420282  0.78682489  0.80455323  1
  Li  Li478  1  0.08425163  0.64647462  0.69439333  1
  Li  Li479  1  0.00085057  0.85414429  0.71000176  1
  Li  Li480  1  0.08427056  0.89987063  0.72519142  1
  Li  Li481  1  0.16750932  0.94469354  0.74009809  1
  Li  Li482  1  0.08420165  0.84491204  0.76061784  1
  Li  Li483  1  0.16753711  0.87587211  0.77652114  1
  Li  Li484  1  0.08420317  0.95349084  0.80455325  1
  Li  Li485  1  0.08455947  0.81370927  0.69441745  1
  Li  Li486  1  0.16748494  0.02088533  0.70997145  1
  Li  Li487  1  0.25087871  0.06640793  0.72515647  1
  Li  Li488  1  0.33419651  0.11136850  0.74010467  1
  Li  Li489  1  0.25086852  0.01157581  0.76061835  1
  Li  Li490  1  0.33420466  0.04253793  0.77652193  1
  Li  Li491  1  0.25086940  0.12015637  0.80455334  1
  Li  Li492  1  0.25094832  -0.01990418  0.69443613  1
  Li  Li493  1  0.16736399  0.18750222  0.71000297  1
  Li  Li494  1  0.25091838  0.23316832  0.72519037  1
  Li  Li495  1  0.33417919  0.27802728  0.74010375  1
  Li  Li496  1  0.25086656  0.17824486  0.76061771  1
  Li  Li497  1  0.33420104  0.20920087  0.77652218  1
  Li  Li498  1  0.25086913  0.28682319  0.80455403  1
  Li  Li499  1  0.25092715  0.14675629  0.69438387  1
  Li  Li500  1  0.16748807  0.35423428  0.71001297  1
  Li  Li501  1  0.25093093  0.39987849  0.72519798  1
  Li  Li502  1  0.33417431  0.44470562  0.74010782  1
  Li  Li503  1  0.25086864  0.34490492  0.76061617  1
  Li  Li504  1  0.33419965  0.37586923  0.77652161  1
  Li  Li505  1  0.25086855  0.45349170  0.80455423  1
  Li  Li506  1  0.25102623  0.31311455  0.69438470  1
  Li  Li507  1  0.16746589  0.52095332  0.71000881  1
  Li  Li508  1  0.25088570  0.56659366  0.72521962  1
  Li  Li509  1  0.33418022  0.61136133  0.74010569  1
  Li  Li510  1  0.25087406  0.51157127  0.76061651  1
  Li  Li511  1  0.33420506  0.54254230  0.77652094  1
  Li  Li512  1  0.25086829  0.62015887  0.80455360  1
  Li  Li513  1  0.25093441  0.47987894  0.69442493  1
  Li  Li514  1  0.16749239  0.68766411  0.70998267  1
  Li  Li515  1  0.25086135  0.73314402  0.72520454  1
  Li  Li516  1  0.33422721  0.77800574  0.74010144  1
  Li  Li517  1  0.25087143  0.67824410  0.76061845  1
  Li  Li518  1  0.33420627  0.70920409  0.77652173  1
  Li  Li519  1  0.25086841  0.78682464  0.80455311  1
  Li  Li520  1  0.25077125  0.64650906  0.69445636  1
  Li  Li521  1  0.16743033  0.85424530  0.70997405  1
  Li  Li522  1  0.25086796  0.89974341  0.72517262  1
  Li  Li523  1  0.33422137  0.94469409  0.74010402  1
  Li  Li524  1  0.25086993  0.84490994  0.76061809  1
  Li  Li525  1  0.33420534  0.87587274  0.77652058  1
  Li  Li526  1  0.25086944  0.95349147  0.80455334  1
  Li  Li527  1  0.25059789  0.81352432  0.69440673  1
  Li  Li528  1  0.33419992  0.02097958  0.70997129  1
  Li  Li529  1  0.41750753  0.06642956  0.72517383  1
  Li  Li530  1  0.50090420  0.11135283  0.74010127  1
  Li  Li531  1  0.41753685  0.01157516  0.76061774  1
  Li  Li532  1  0.50087101  0.04253960  0.77652080  1
  Li  Li533  1  0.41753632  0.12015770  0.80455317  1
  Li  Li534  1  0.41728233  -0.01987227  0.69445100  1
  Li  Li535  1  0.33419725  0.18757346  0.70997290  1
  Li  Li536  1  0.41753300  0.23308219  0.72517581  1
  Li  Li537  1  0.50084612  0.27802731  0.74010357  1
  Li  Li538  1  0.41753338  0.17824129  0.76061825  1
  Li  Li539  1  0.50087048  0.20920368  0.77652191  1
  Li  Li540  1  0.41753616  0.28682331  0.80455334  1
  Li  Li541  1  0.41746079  0.14686434  0.69447110  1
  Li  Li542  1  0.33410671  0.35429606  0.70998286  1
  Li  Li543  1  0.41755195  0.39978296  0.72517538  1
  Li  Li544  1  0.50084276  0.44472057  0.74010666  1
  Li  Li545  1  0.41753297  0.34490462  0.76061775  1
  Li  Li546  1  0.50086797  0.37587034  0.77652223  1
  Li  Li547  1  0.41753580  0.45349081  0.80455395  1
  Li  Li548  1  0.41749995  0.31329622  0.69439935  1
  Li  Li549  1  0.33412334  0.52093379  0.71000630  1
  Li  Li550  1  0.41754290  0.56652859  0.72519386  1
  Li  Li551  1  0.50087471  0.61139144  0.74010611  1
  Li  Li552  1  0.41753641  0.51157225  0.76061727  1
  Li  Li553  1  0.50086551  0.54254128  0.77652197  1
  Li  Li554  1  0.41753558  0.62015841  0.80455390  1
  Li  Li555  1  0.41753020  0.48013402  0.69444423  1
  Li  Li556  1  0.33426978  0.68768233  0.70998527  1
  Li  Li557  1  0.41749316  0.73320576  0.72520860  1
  Li  Li558  1  0.50087750  0.77804764  0.74010851  1
  Li  Li559  1  0.41753944  0.67824455  0.76061763  1
  Li  Li560  1  0.50086943  0.70920248  0.77652198  1
  Li  Li561  1  0.41753553  0.78682436  0.80455341  1
  Li  Li562  1  0.41767607  0.64674462  0.69443448  1
  Li  Li563  1  0.33425234  0.85431743  0.70997404  1
  Li  Li564  1  0.41750966  0.89982178  0.72519956  1
  Li  Li565  1  0.50090128  0.94467340  0.74009836  1
  Li  Li566  1  0.41753738  0.84490755  0.76061687  1
  Li  Li567  1  0.50087096  0.87586937  0.77652007  1
  Li  Li568  1  0.41753576  0.95349196  0.80455352  1
  Li  Li569  1  0.41738220  0.81348946  0.69447704  1
  Li  Li570  1  0.50091206  0.02097269  0.70999593  1
  Li  Li571  1  0.58415505  0.06655909  0.72521479  1
  Li  Li572  1  0.66753967  0.11134141  0.74010036  1
  Li  Li573  1  0.58420239  0.01157611  0.76061671  1
  Li  Li574  1  0.66753286  0.04253494  0.77652073  1
  Li  Li575  1  0.58420223  0.12015818  0.80455310  1
  Li  Li576  1  0.58413331  -0.02005140  0.69441787  1
  Li  Li577  1  0.50089955  0.18756741  0.70997757  1
  Li  Li578  1  0.58420493  0.23312692  0.72518324  1
  Li  Li579  1  0.66756949  0.27801294  0.74009932  1
  Li  Li580  1  0.58420342  0.17824100  0.76061759  1
  Li  Li581  1  0.66753876  0.20920326  0.77652113  1
  Li  Li582  1  0.58420254  0.28682396  0.80455310  1
  Li  Li583  1  0.58413456  0.14690876  0.69447548  1
  Li  Li584  1  0.50099146  0.35422268  0.70998816  1
  Li  Li585  1  0.58422805  0.39978213  0.72516898  1
  Li  Li586  1  0.66752062  0.44471556  0.74010291  1
  Li  Li587  1  0.58420073  0.34490326  0.76061782  1
  Li  Li588  1  0.66753690  0.37587268  0.77652166  1
  Li  Li589  1  0.58420272  0.45349060  0.80455365  1
  Li  Li590  1  0.58434238  0.31370974  0.69443282  1
  Li  Li591  1  0.50090900  0.52082588  0.70999644  1
  Li  Li592  1  0.58424394  0.56648488  0.72517373  1
  Li  Li593  1  0.66751159  0.61138611  0.74010367  1
  Li  Li594  1  0.58419963  0.51157312  0.76061819  1
  Li  Li595  1  0.66753487  0.54253896  0.77652216  1
  Li  Li596  1  0.58420264  0.62015742  0.80455380  1
  Li  Li597  1  0.58429958  0.48047998  0.69444932  1
  Li  Li598  1  0.50084549  0.68748973  0.70999453  1
  Li  Li599  1  0.58423121  0.73317914  0.72518679  1
  Li  Li600  1  0.66756285  0.77806355  0.74010447  1
  Li  Li601  1  0.58420625  0.67824591  0.76061761  1
  Li  Li602  1  0.66753809  0.70920029  0.77652202  1
  Li  Li603  1  0.58420267  0.78682392  0.80455363  1
  Li  Li604  1  0.58412641  0.64666171  0.69436720  1
  Li  Li605  1  0.50103392  0.85428250  0.70999154  1
  Li  Li606  1  0.58413182  0.89997060  0.72522500  1
  Li  Li607  1  0.66753053  0.94469348  0.74010205  1
  Li  Li608  1  0.58420481  0.84490852  0.76061571  1
  Li  Li609  1  0.66753331  0.87586675  0.77652049  1
  Li  Li610  1  0.58420221  0.95349173  0.80455353  1
  Li  Li611  1  0.58423213  0.81326004  0.69439601  1
  Li  Li612  1  0.66760855  0.02104189  0.71001876  1
  Li  Li613  1  0.75083118  0.06666178  0.72523422  1
  Li  Li614  1  0.83419302  0.11137846  0.74010743  1
  Li  Li615  1  0.75086616  0.01157820  0.76061624  1
  Li  Li616  1  0.83420110  0.04252943  0.77652145  1
  Li  Li617  1  0.75086915  0.12015700  0.80455294  1
  Li  Li618  1  0.75086541  -0.02041860  0.69434442  1
  Li  Li619  1  0.66761797  0.18762842  0.70998751  1
  Li  Li620  1  0.75083188  0.23320966  0.72521263  1
  Li  Li621  1  0.83424179  0.27799421  0.74009595  1
  Li  Li622  1  0.75087117  0.17823900  0.76061640  1
  Li  Li623  1  0.83420359  0.20920016  0.77652130  1
  Li  Li624  1  0.75086985  0.28682411  0.80455332  1
  Li  Li625  1  0.75065182  0.14672227  0.69439124  1
  Li  Li626  1  0.66748168  0.35423446  0.70996351  1
  Li  Li627  1  0.75082850  0.39975363  0.72515549  1
  Li  Li628  1  0.83424646  0.44474271  0.74011354  1
  Li  Li629  1  0.75087122  0.34490077  0.76061710  1
  Li  Li630  1  0.83420484  0.37587252  0.77652199  1
  Li  Li631  1  0.75087015  0.45349102  0.80455343  1
  Li  Li632  1  0.75075887  0.31350593  0.69437017  1
  Li  Li633  1  0.66751558  0.52084029  0.70997161  1
  Li  Li634  1  0.75077260  0.56654535  0.72518537  1
  Li  Li635  1  0.83421019  0.61142291  0.74011322  1
  Li  Li636  1  0.75086742  0.51157475  0.76061776  1
  Li  Li637  1  0.83420099  0.54253995  0.77652277  1
  Li  Li638  1  0.75086982  0.62015706  0.80455342  1
  Li  Li639  1  0.75067628  0.47986916  0.69437105  1
  Li  Li640  1  0.66760395  0.68750505  0.70999956  1
  Li  Li641  1  0.75078866  0.73331247  0.72521497  1
  Li  Li642  1  0.83417526  0.77804183  0.74010213  1
  Li  Li643  1  0.75086704  0.67824666  0.76061733  1
  Li  Li644  1  0.83420113  0.70920378  0.77652211  1
  Li  Li645  1  0.75086993  0.78682404  0.80455347  1
  Li  Li646  1  0.75083241  0.64670992  0.69433708  1
  Li  Li647  1  0.66743714  0.85423657  0.71002569  1
  Li  Li648  1  0.75090462  0.89996202  0.72521151  1
  Li  Li649  1  0.83416997  0.94474154  0.74010886  1
  Li  Li650  1  0.75086650  0.84491130  0.76061622  1
  Li  Li651  1  0.83420079  0.87586809  0.77652161  1
  Li  Li652  1  0.75086914  0.95349088  0.80455323  1
  Li  Li653  1  0.75088045  0.81312398  0.69432786  1
  Li  Li654  1  0.83411333  0.02098298  0.71004338  1
  Li  Li655  1  0.91760042  0.06658294  0.72520033  1
  Li  Li656  1  0.00085831  0.11138624  0.74010438  1
  Li  Li657  1  0.91753569  0.01157699  0.76061717  1
  Li  Li658  1  0.00086951  0.04253159  0.77652276  1
  Li  Li659  1  0.91753461  0.12015574  0.80455322  1
  Li  Li660  1  0.91774546  -0.02014877  0.69438793  1
  Li  Li661  1  0.83433842  0.18764882  0.71001401  1
  Li  Li662  1  0.91758407  0.23323160  0.72520742  1
  Li  Li663  1  0.00087187  0.27797704  0.74008720  1
  Li  Li664  1  0.91753691  0.17823938  0.76061648  1
  Li  Li665  1  0.00086904  0.20919933  0.77652155  1
  Li  Li666  1  0.91753450  0.28682420  0.80455402  1
  Li  Li667  1  0.91767373  0.14670854  0.69434908  1
  Li  Li668  1  0.83424436  0.35419231  0.70998246  1
  Li  Li669  1  0.91755658  0.39975395  0.72515881  1
  Li  Li670  1  0.00087734  0.44469220  0.74010355  1
  Li  Li671  1  0.91753711  0.34489951  0.76061676  1
  Li  Li672  1  0.00087234  0.37587369  0.77652123  1
  Li  Li673  1  0.91753510  0.45349186  0.80455375  1
  Li  Li674  1  0.91758352  0.31327328  0.69433608  1
  Li  Li675  1  0.83427677  0.52084629  0.71002914  1
  Li  Li676  1  0.91761172  0.56659446  0.72519902  1
  Li  Li677  1  0.00086687  0.61136310  0.74010161  1
  Li  Li678  1  0.91753272  0.51157335  0.76061765  1
  Li  Li679  1  0.00087184  0.54254008  0.77652184  1
  Li  Li680  1  0.91753553  0.62015762  0.80455324  1
  Li  Li681  1  0.91757429  0.47997088  0.69436196  1
  Li  Li682  1  0.83417703  0.68760332  0.71002691  1
  Li  Li683  1  0.91763571  0.73326710  0.72521157  1
  Li  Li684  1  0.00080635  0.77805921  0.74010594  1
  Li  Li685  1  0.91753183  0.67824489  0.76061820  1
  Li  Li686  1  0.00086800  0.70920703  0.77652167  1
  Li  Li687  1  0.91753531  0.78682464  0.80455340  1
  Li  Li688  1  0.91768230  0.64663434  0.69438069  1
  Li  Li689  1  0.83416123  0.85411862  0.71000065  1
  Li  Li690  1  0.91752427  0.89992893  0.72519546  1
  Li  Li691  1  0.00088909  0.94471559  0.74010224  1
  Li  Li692  1  0.91753355  0.84491363  0.76061716  1
  Li  Li693  1  0.00087069  0.87587094  0.77652135  1
  Li  Li694  1  0.91753496  0.95349047  0.80455314  1
  Li  Li695  1  0.91757299  0.81381378  0.69438345  1
  La  La696  1  0.00568817  0.13957405  0.20841873  1
  La  La697  1  0.47763984  0.39197645  0.20572092  1
  La  La698  1  0.26167071  0.00396935  0.22806010  1
  La  La699  1  0.75623358  0.50624792  0.22937245  1
  La  La700  1  0.88258503  0.75007535  0.25100635  1
  La  La701  1  0.37693099  0.74352552  0.24102498  1
  La  La702  1  0.62504624  0.24934766  0.24982400  1
  La  La703  1  0.13478400  0.25894601  0.24724801  1
  La  La704  1  0.75280501  0.99672836  0.27019175  1
  La  La705  1  0.25546301  0.50425071  0.27009537  1
  La  La706  1  0.50514689  0.11842793  0.29212326  1
  La  La707  1  0.00687186  0.37953040  0.29375993  1
  La  La708  1  0.50174284  0.62238491  0.29291954  1
  La  La709  1  0.00569565  0.88051828  0.29272527  1
  La  La710  1  0.75322819  0.50031016  0.31455267  1
  La  La711  1  0.25671651  0.99843919  0.31468329  1
  La  La712  1  0.37920200  0.24937450  0.33661407  1
  La  La713  1  0.87842444  0.25092149  0.33663469  1
  La  La714  1  0.12994402  0.75243860  0.33630194  1
  La  La715  1  0.62846175  0.75005950  0.33657016  1
  La  La716  1  0.25505691  0.50265690  0.35992800  1
  La  La717  1  0.75320351  0.00113414  0.36012813  1
  La  La718  1  0.00592657  0.62224956  0.38061001  1
  La  La719  1  0.50541435  0.87729686  0.38034643  1
  La  La720  1  0.00285806  0.12595032  0.37956128  1
  La  La721  1  0.50347354  0.38076634  0.38050225  1
  La  La722  1  0.25733678  1.00550562  0.40272472  1
  La  La723  1  0.75170910  0.50275035  0.40340225  1
  La  La724  1  0.88171181  0.75201081  0.42305118  1
  La  La725  1  0.38219129  0.75170426  0.42498459  1
  La  La726  1  0.62640395  0.25051850  0.42391112  1
  La  La727  1  0.13272998  0.24677691  0.42426399  1
  La  La728  1  0.75303597  0.00957517  0.44659069  1
  La  La729  1  0.25151314  0.50140999  0.44744709  1
  La  La730  1  0.49031295  0.13820264  0.46511533  1
  La  La731  1  0.00057535  0.37867174  0.46538885  1
  Zr  Zr732  1  0.81027201  0.75254671  0.20388792  1
  Zr  Zr733  1  0.73530912  0.24880146  0.20160357  1
  Zr  Zr734  1  0.99933404  0.99669557  0.24897684  1
  Zr  Zr735  1  0.50933352  0.99899943  0.24694810  1
  Zr  Zr736  1  0.50225458  0.49857843  0.24772047  1
  Zr  Zr737  1  0.00906941  0.50324486  0.24815145  1
  Zr  Zr738  1  0.75252334  0.24818011  0.29398979  1
  Zr  Zr739  1  0.75310886  0.75101957  0.29396239  1
  Zr  Zr740  1  0.25392485  0.25320649  0.29399642  1
  Zr  Zr741  1  0.25743598  0.74967545  0.29313862  1
  Zr  Zr742  1  0.50442466  0.50176751  0.33750150  1
  Zr  Zr743  1  0.00240065  0.50171073  0.33788766  1
  Zr  Zr744  1  0.00372322  0.99790784  0.33740313  1
  Zr  Zr745  1  0.50359577  0.00165152  0.33771731  1
  Zr  Zr746  1  0.25530920  0.75158934  0.38182709  1
  Zr  Zr747  1  0.25611988  0.25223777  0.38112981  1
  Zr  Zr748  1  0.75330941  0.75136870  0.38093512  1
  Zr  Zr749  1  0.75372115  0.25282675  0.38125603  1
  Zr  Zr750  1  1.00042048  0.00228102  0.42376166  1
  Zr  Zr751  1  0.50142160  0.99771830  0.42577101  1
  Zr  Zr752  1  0.50983021  0.50561192  0.42612293  1
  Zr  Zr753  1  0.99652637  0.49835716  0.42480238  1
  Zr  Zr754  1  0.74487628  0.25503640  0.46731878  1
  Zr  Zr755  1  0.80619446  0.77292845  0.46767034  1
  O  O756  1  0.76335935  0.88729358  0.20568865  1
  O  O757  1  0.82323676  0.13023683  0.20379044  1
  O  O758  1  0.15272904  0.57136926  0.21318099  1
  O  O759  1  0.33225069  0.45131985  0.20628909  1
  O  O760  1  0.95324204  0.77111260  0.21287710  1
  O  O761  1  0.58951675  0.21413923  0.20539485  1
  O  O762  1  0.40398477  0.69232146  0.21499949  1
  O  O763  1  0.05774222  0.28618859  0.21791223  1
  O  O764  1  0.44291045  0.04225025  0.22259474  1
  O  O765  1  0.04987539  0.98124530  0.22037998  1
  O  O766  1  0.57488339  0.51259291  0.22110352  1
  O  O767  1  0.93750078  0.48642157  0.22320155  1
  O  O768  1  0.21700328  0.83590596  0.23474498  1
  O  O769  1  0.27941372  0.18350135  0.23580726  1
  O  O770  1  0.74691028  0.69228946  0.22572934  1
  O  O771  1  0.76805695  0.31402900  0.22445244  1
  O  O772  1  0.55407515  0.85930876  0.24008174  1
  O  O773  1  0.94388919  0.13487377  0.23787191  1
  O  O774  1  0.02589779  0.65409279  0.24467187  1
  O  O775  1  0.47899673  0.34204121  0.23627211  1
  O  O776  1  0.84733038  0.93525088  0.24127652  1
  O  O777  1  0.65551915  0.06776247  0.23750262  1
  O  O778  1  0.15409928  0.43516045  0.24611236  1
  O  O779  1  0.35515358  0.55439053  0.24555564  1
  O  O780  1  0.35706978  0.96158321  0.25455305  1
  O  O781  1  0.14665512  0.04942170  0.25434046  1
  O  O782  1  0.66214152  0.43229034  0.25538853  1
  O  O783  1  0.84063325  0.56007649  0.25642044  1
  O  O784  1  0.47679906  0.15617726  0.25878386  1
  O  O785  1  0.03209880  0.85334424  0.26006243  1
  O  O786  1  0.94734939  0.35649174  0.25532625  1
  O  O787  1  0.56238445  0.63453916  0.25510333  1
  O  O788  1  0.77448098  0.19188648  0.26768968  1
  O  O789  1  0.71971909  0.80065984  0.26800744  1
  O  O790  1  0.29574337  0.31305853  0.26961264  1
  O  O791  1  0.21406360  0.69311980  0.26893928  1
  O  O792  1  0.93910010  0.02404940  0.27499862  1
  O  O793  1  0.56710658  0.98119503  0.27468843  1
  O  O794  1  0.04816961  0.52253716  0.27675705  1
  O  O795  1  0.46398082  0.47281774  0.27534822  1
  O  O796  1  0.10230807  0.21313572  0.28473865  1
  O  O797  1  0.41090163  0.78633744  0.28482264  1
  O  O798  1  0.59823662  0.28328758  0.28525848  1
  O  O799  1  0.90856067  0.71739233  0.28495430  1
  O  O800  1  0.30808733  0.10310808  0.28813303  1
  O  O801  1  0.20603433  0.90209323  0.28772564  1
  O  O802  1  0.81351252  0.39621997  0.28980347  1
  O  O803  1  0.69354272  0.60174039  0.29006918  1
  O  O804  1  0.19885152  0.40163895  0.30011222  1
  O  O805  1  0.30926622  0.59853238  0.29931525  1
  O  O806  1  0.70181464  0.09740480  0.29943955  1
  O  O807  1  0.80519210  0.90316975  0.29891765  1
  O  O808  1  0.40560467  0.28812617  0.30506288  1
  O  O809  1  0.10312504  0.71766029  0.30445991  1
  O  O810  1  0.90710176  0.20996903  0.30452883  1
  O  O811  1  0.60188588  0.78923127  0.30443235  1
  O  O812  1  0.94963345  0.52771336  0.31225654  1
  O  O813  1  0.55827098  0.47360925  0.31200765  1
  O  O814  1  0.06080411  0.02356754  0.31169228  1
  O  O815  1  0.45119937  0.97704815  0.31185862  1
  O  O816  1  0.71969385  0.30474129  0.32044947  1
  O  O817  1  0.78805680  0.69470594  0.32060186  1
  O  O818  1  0.21956133  0.19192450  0.32063235  1
  O  O819  1  0.28799441  0.80973963  0.32059961  1
  O  O820  1  0.03766988  0.35352071  0.32972651  1
  O  O821  1  0.46963780  0.64877368  0.32887721  1
  O  O822  1  0.53837729  0.14921830  0.32981636  1
  O  O823  1  0.96917712  0.85147589  0.32911527  1
  O  O824  1  0.34908829  0.44747960  0.33293180  1
  O  O825  1  0.15781113  0.55768691  0.33271261  1
  O  O826  1  0.65752623  0.94605249  0.33271121  1
  O  O827  1  0.84966841  0.05487530  0.33267924  1
  O  O828  1  0.84908441  0.44724447  0.34438638  1
  O  O829  1  0.65733739  0.55599224  0.34436083  1
  O  O830  1  0.15635222  0.94413353  0.34465630  1
  O  O831  1  0.34886280  0.05383768  0.34414786  1
  O  O832  1  0.96876953  0.64875794  0.34896550  1
  O  O833  1  0.53905558  0.35397306  0.34862047  1
  O  O834  1  0.46935793  0.85384709  0.34881095  1
  O  O835  1  0.03918810  0.14693513  0.34822919  1
  O  O836  1  0.29048162  0.69508453  0.35698571  1
  O  O837  1  0.21803711  0.31087729  0.35649819  1
  O  O838  1  0.78792086  0.80767061  0.35617171  1
  O  O839  1  0.71866207  0.19593701  0.35642976  1
  O  O840  1  0.44631279  0.52556844  0.36537689  1
  O  O841  1  0.06473610  0.47790223  0.36551683  1
  O  O842  1  0.55995774  0.02796657  0.36561663  1
  O  O843  1  0.94603174  0.97356599  0.36510726  1
  O  O844  1  0.59871355  0.71297218  0.37355176  1
  O  O845  1  0.90823826  0.29004163  0.37288081  1
  O  O846  1  0.10190541  0.78518181  0.37397240  1
  O  O847  1  0.40761652  0.21513866  0.37257286  1
  O  O848  1  0.80539433  0.60027500  0.37684208  1
  O  O849  1  0.70158573  0.40381930  0.37675524  1
  O  O850  1  0.30871422  0.90213589  0.37701676  1
  O  O851  1  0.20374892  0.10174836  0.37674290  1
  O  O852  1  0.69803043  0.89973237  0.38706866  1
  O  O853  1  0.81052607  0.10498251  0.38695930  1
  O  O854  1  0.20728086  0.60018318  0.38884736  1
  O  O855  1  0.30937381  0.39971634  0.38898660  1
  O  O856  1  0.90891501  0.78701337  0.39169323  1
  O  O857  1  0.59750061  0.21622670  0.39175801  1
  O  O858  1  0.40922264  0.71303793  0.39332061  1
  O  O859  1  0.10426181  0.29113269  0.39234034  1
  O  O860  1  0.45126331  0.02565126  0.39958480  1
  O  O861  1  0.05757225  0.98104047  0.39753955  1
  O  O862  1  0.56045522  0.52250134  0.39970542  1
  O  O863  1  0.94128020  0.47818891  0.39895753  1
  O  O864  1  0.22932881  0.81897476  0.40848008  1
  O  O865  1  0.28749128  0.19162702  0.40747116  1
  O  O866  1  0.72710259  0.69153741  0.40772976  1
  O  O867  1  0.77319258  0.31565153  0.40795860  1
  O  O868  1  0.54779738  0.85242285  0.41868776  1
  O  O869  1  0.96477103  0.15316172  0.41754534  1
  O  O870  1  0.04251251  0.64674898  0.41769662  1
  O  O871  1  0.46978479  0.35198431  0.42012050  1
  O  O872  1  0.84714666  0.95185059  0.41883080  1
  O  O873  1  0.65572253  0.05684125  0.41976129  1
  O  O874  1  0.15258601  0.45082411  0.42103240  1
  O  O875  1  0.35222177  0.54935880  0.42138619  1
  O  O876  1  0.35676104  0.93148714  0.43353166  1
  O  O877  1  0.15823881  0.05013637  0.43047076  1
  O  O878  1  0.65794229  0.45321649  0.43353995  1
  O  O879  1  0.84867290  0.55725149  0.43171746  1
  O  O880  1  0.46480895  0.14342412  0.43489167  1
  O  O881  1  0.04090930  0.85213761  0.42893531  1
  O  O882  1  0.95919865  0.35470956  0.43468915  1
  O  O883  1  0.55463325  0.65067528  0.43294714  1
  O  O884  1  0.78583336  0.19500728  0.44228778  1
  O  O885  1  0.73200027  0.81744501  0.44340307  1
  O  O886  1  0.28575024  0.32513942  0.44106460  1
  O  O887  1  0.22414137  0.68663049  0.44211478  1
  O  O888  1  0.95091184  0.03404267  0.45085496  1
  O  O889  1  0.56379734  0.96859375  0.45295278  1
  O  O890  1  0.04494731  0.53442478  0.45302695  1
  O  O891  1  0.45778504  0.48554822  0.45445452  1
  O  O892  1  0.08350779  0.20979448  0.45610900  1
  O  O893  1  0.43746394  0.76863466  0.45917526  1
  O  O894  1  0.58856865  0.28499260  0.45653274  1
  O  O895  1  0.95022311  0.72679861  0.45563088  1
  O  O896  1  0.34944154  0.03077770  0.46991998  1
  O  O897  1  0.16616764  0.91606929  0.46043144  1
  O  O898  1  0.81006874  0.40045429  0.46526715  1
  O  O899  1  0.74496826  0.63395405  0.46384552  1
