# generated using pymatgen
data_Li201La9Zr5O34
_symmetry_space_group_name_H-M   'P 1'
_cell_length_a   12.95650959
_cell_length_b   13.43560505
_cell_length_c   74.95120265
_cell_angle_alpha   90.25032214
_cell_angle_beta   90.09589967
_cell_angle_gamma   90.31587528
_symmetry_Int_Tables_number   1
_chemical_formula_structural   Li201La9Zr5O34
_chemical_formula_sum   'Li804 La36 Zr20 O136'
_cell_volume   13047.05474000
_cell_formula_units_Z   4
loop_
 _symmetry_equiv_pos_site_id
 _symmetry_equiv_pos_as_xyz
  1  'x, y, z'
loop_
 _atom_site_type_symbol
 _atom_site_label
 _atom_site_symmetry_multiplicity
 _atom_site_fract_x
 _atom_site_fract_y
 _atom_site_fract_z
 _atom_site_occupancy
  Li  Li0  1  0.87679565  0.93665573  0.19094081  1
  Li  Li1  1  0.57297294  0.09138286  0.19353082  1
  Li  Li2  1  0.15497882  0.39090125  0.19114879  1
  Li  Li3  1  0.35964763  0.56164216  0.19269588  1
  Li  Li4  1  0.59602064  0.65631513  0.19583473  1
  Li  Li5  1  0.92338489  0.33634117  0.19958072  1
  Li  Li6  1  0.09307416  0.83343272  0.19868336  1
  Li  Li7  1  0.40282459  0.16290055  0.19924239  1
  Li  Li8  1  0.68328756  0.90886321  0.21039845  1
  Li  Li9  1  0.78821312  0.07983906  0.20635380  1
  Li  Li10  1  0.17868696  0.59152847  0.21071874  1
  Li  Li11  1  0.29550966  0.42906615  0.21239756  1
  Li  Li12  1  0.86592583  0.24141286  0.22628791  1
  Li  Li13  1  0.62504728  0.73730692  0.22498525  1
  Li  Li14  1  0.36809965  0.25821210  0.22648731  1
  Li  Li15  1  0.11843480  0.75020566  0.22707070  1
  Li  Li16  1  0.32128032  0.10581164  0.23748475  1
  Li  Li17  1  0.16625971  0.90280438  0.23755894  1
  Li  Li18  1  0.82145823  0.39968118  0.23782104  1
  Li  Li19  1  0.70288035  0.58276170  0.23990073  1
  Li  Li20  1  0.43576594  0.34651589  0.25403404  1
  Li  Li21  1  0.05223092  0.66968119  0.25407302  1
  Li  Li22  1  0.94681432  0.15814793  0.25512550  1
  Li  Li23  1  0.57412581  0.83650536  0.24613036  1
  Li  Li24  1  0.32986200  0.94370712  0.25622764  1
  Li  Li25  1  0.14578716  0.07062556  0.25433952  1
  Li  Li26  1  0.64045325  0.42763232  0.25480614  1
  Li  Li27  1  0.89452126  0.56773592  0.25695925  1
  Li  Li28  1  0.34940344  0.43454220  0.28180820  1
  Li  Li29  1  0.13033525  0.57703382  0.28171170  1
  Li  Li30  1  0.65342831  0.93956157  0.28112898  1
  Li  Li31  1  0.84427742  0.07286125  0.28202952  1
  Li  Li32  1  0.04747447  0.16495364  0.28357165  1
  Li  Li33  1  0.48340843  0.87775779  0.27218529  1
  Li  Li34  1  0.54397127  0.34072868  0.28296525  1
  Li  Li35  1  0.93619721  0.66834829  0.28397074  1
  Li  Li36  1  0.17567105  0.41135136  0.29900255  1
  Li  Li37  1  0.30299714  0.59725383  0.29999454  1
  Li  Li38  1  0.67330748  0.09913485  0.29943255  1
  Li  Li39  1  0.81272987  0.90976596  0.29963186  1
  Li  Li40  1  0.38671083  0.78436106  0.30360163  1
  Li  Li41  1  0.11678901  0.25032244  0.31269959  1
  Li  Li42  1  0.86454015  0.74868088  0.31321714  1
  Li  Li43  1  0.61450919  0.25836410  0.31295465  1
  Li  Li44  1  0.79985176  0.58645216  0.32530885  1
  Li  Li45  1  0.68928184  0.42117658  0.32621171  1
  Li  Li46  1  0.29619194  0.91525499  0.32522917  1
  Li  Li47  1  0.19081235  0.08901561  0.32672974  1
  Li  Li48  1  0.92650004  0.84322038  0.33907887  1
  Li  Li49  1  0.55643022  0.16858573  0.34106430  1
  Li  Li50  1  0.40666114  0.67822168  0.32988214  1
  Li  Li51  1  0.05870061  0.33733550  0.34007222  1
  Li  Li52  1  0.88420323  0.42763834  0.34215467  1
  Li  Li53  1  0.63766919  0.58731991  0.34249737  1
  Li  Li54  1  0.13055893  0.92732162  0.34354694  1
  Li  Li55  1  0.38289873  0.07981175  0.34239285  1
  Li  Li56  1  0.84068244  0.94619406  0.36785264  1
  Li  Li57  1  0.64787483  0.06242999  0.36944489  1
  Li  Li58  1  0.14544730  0.44603667  0.36932129  1
  Li  Li59  1  0.32219268  0.56275122  0.36947379  1
  Li  Li60  1  0.48676101  0.63046153  0.35768958  1
  Li  Li61  1  0.95444649  0.35308556  0.36890010  1
  Li  Li62  1  0.02677232  0.85068049  0.36800379  1
  Li  Li63  1  0.44931552  0.15951928  0.37007722  1
  Li  Li64  1  0.66247960  0.89341686  0.38620875  1
  Li  Li65  1  0.82152352  0.10669767  0.38740299  1
  Li  Li66  1  0.15730784  0.60692311  0.38745120  1
  Li  Li67  1  0.32467477  0.40204818  0.38731609  1
  Li  Li68  1  0.86021939  0.26995694  0.39739843  1
  Li  Li69  1  0.57812258  0.70378321  0.38518618  1
  Li  Li70  1  0.36560675  0.24584785  0.39875406  1
  Li  Li71  1  0.11566124  0.77028358  0.39790403  1
  Li  Li72  1  0.29396086  0.07669885  0.41548219  1
  Li  Li73  1  0.18643803  0.91917425  0.41359162  1
  Li  Li74  1  0.78906372  0.43742818  0.41654866  1
  Li  Li75  1  0.68835605  0.60800450  0.41170570  1
  Li  Li76  1  0.42200799  0.34845271  0.42209291  1
  Li  Li77  1  0.07048975  0.66950504  0.41993915  1
  Li  Li78  1  0.92289779  0.16977989  0.41874958  1
  Li  Li79  1  0.58984298  0.79198585  0.41413161  1
  Li  Li80  1  0.41042977  0.90885789  0.43181233  1
  Li  Li81  1  0.09297333  0.09786464  0.42977700  1
  Li  Li82  1  0.59074010  0.42435706  0.42920644  1
  Li  Li83  1  0.88715726  0.59653193  0.43370927  1
  Li  Li84  1  -0.01253628  1.01920870  0.48200549  1
  Li  Li85  1  0.18784347  0.12424434  0.52648517  1
  Li  Li86  1  0.19915181  0.16722693  0.56284779  1
  Li  Li87  1  0.03803760  0.10057773  0.57635045  1
  Li  Li88  1  0.20594643  0.15983053  0.58537307  1
  Li  Li89  1  0.12402323  0.12850131  0.60151031  1
  Li  Li90  1  0.01784480  0.05266981  0.60069539  1
  Li  Li91  1  0.12351185  0.11184839  0.62654327  1
  Li  Li92  1  0.02770471  0.03196980  0.63106407  1
  Li  Li93  1  -0.07744519  0.07076696  0.45017666  1
  Li  Li94  1  0.21107939  0.27320660  0.49869939  1
  Li  Li95  1  0.19294933  0.30293806  0.54243325  1
  Li  Li96  1  0.09284671  0.23183758  0.57570412  1
  Li  Li97  1  0.14666172  0.36550822  0.58001336  1
  Li  Li98  1  0.13859251  0.27111108  0.59525051  1
  Li  Li99  1  0.08707248  0.22610914  0.61400371  1
  Li  Li100  1  0.17709700  0.32979966  0.62017274  1
  Li  Li101  1  0.07731703  0.28670310  0.63331855  1
  Li  Li102  1  1.01316848  0.34864101  0.48724762  1
  Li  Li103  1  0.17581017  0.44221505  0.51610265  1
  Li  Li104  1  0.14423708  0.47895269  0.55111322  1
  Li  Li105  1  0.02931683  0.43672459  0.57775921  1
  Li  Li106  1  0.20521590  0.49329206  0.58548930  1
  Li  Li107  1  0.10894513  0.45655209  0.59838673  1
  Li  Li108  1  0.05822939  0.34852058  0.61123658  1
  Li  Li109  1  0.13885616  0.46054174  0.62001669  1
  Li  Li110  1  0.11741324  0.40328733  0.63964539  1
  Li  Li111  1  0.92180562  0.52346606  0.47241819  1
  Li  Li112  1  0.10861162  0.68704542  0.51137103  1
  Li  Li113  1  0.11049977  0.66182282  0.54568847  1
  Li  Li114  1  0.07844773  0.54916384  0.57995114  1
  Li  Li115  1  0.14503561  0.73333052  0.59088148  1
  Li  Li116  1  0.13810164  0.59543742  0.59783682  1
  Li  Li117  1  0.10601071  0.59714659  0.61936156  1
  Li  Li118  1  0.14448046  0.67416901  0.63489941  1
  Li  Li119  1  0.10535590  0.54101795  0.63931431  1
  Li  Li120  1  0.08161291  0.57679126  0.45204356  1
  Li  Li121  1  0.11977614  0.72176556  0.47690464  1
  Li  Li122  1  0.10659825  0.89245835  0.50340015  1
  Li  Li123  1  0.07259690  0.70790638  0.57304703  1
  Li  Li124  1  0.14097999  0.87494409  0.59374110  1
  Li  Li125  1  0.02698230  0.78244754  0.58939980  1
  Li  Li126  1  0.04242823  0.67337147  0.60510125  1
  Li  Li127  1  0.16723411  0.80220508  0.62574207  1
  Li  Li128  1  0.04586435  0.75986987  0.63209853  1
  Li  Li129  1  0.96775804  0.74949846  0.45486158  1
  Li  Li130  1  0.19972873  0.94311145  0.54304857  1
  Li  Li131  1  0.17678902  1.00713911  0.56175191  1
  Li  Li132  1  0.05928331  0.88666001  0.56510566  1
  Li  Li133  1  0.16058382  0.98418282  0.58294377  1
  Li  Li134  1  0.02107033  0.91508809  0.59736838  1
  Li  Li135  1  0.07831957  0.80611334  0.60947939  1
  Li  Li136  1  0.14043618  0.97722978  0.61883784  1
  Li  Li137  1  0.06077166  0.89663624  0.62851967  1
  Li  Li138  1  0.18707886  1.06112524  0.48725950  1
  Li  Li139  1  0.37007512  0.15133007  0.49382155  1
  Li  Li140  1  0.33474257  0.07258171  0.54713457  1
  Li  Li141  1  0.28746432  0.04660432  0.58187561  1
  Li  Li142  1  0.34018530  0.17352141  0.57673331  1
  Li  Li143  1  0.32191614  0.11862050  0.59899785  1
  Li  Li144  1  0.23279859  0.01273768  0.60422276  1
  Li  Li145  1  0.26578653  0.11952327  0.61953189  1
  Li  Li146  1  0.22695032  0.08632703  0.63959244  1
  Li  Li147  1  0.07772536  0.19101819  0.46704323  1
  Li  Li148  1  0.36063732  0.22340413  0.52451859  1
  Li  Li149  1  0.35512644  0.25328826  0.55949291  1
  Li  Li150  1  0.23215605  0.26845391  0.57512325  1
  Li  Li151  1  0.36520408  0.30540626  0.58322363  1
  Li  Li152  1  0.25641946  0.32133722  0.59496776  1
  Li  Li153  1  0.23098038  0.22018776  0.60780599  1
  Li  Li154  1  0.30086539  0.29875433  0.62603232  1
  Li  Li155  1  0.20326043  0.21409482  0.62986364  1
  Li  Li156  1  0.21016780  0.39238333  0.46642519  1
  Li  Li157  1  0.32912035  0.47136757  0.49260031  1
  Li  Li158  1  0.35029747  0.41649353  0.53518260  1
  Li  Li159  1  0.26690808  0.38897068  0.57244113  1
  Li  Li160  1  0.31327222  0.49446404  0.56345133  1
  Li  Li161  1  0.33191510  0.43684650  0.58995351  1
  Li  Li162  1  0.24356832  0.42630638  0.60698094  1
  Li  Li163  1  0.33909895  0.50840755  0.62056300  1
  Li  Li164  1  0.24979757  0.42208021  0.63132755  1
  Li  Li165  1  0.11440523  0.53024538  0.48820897  1
  Li  Li166  1  0.29802324  0.67473718  0.49597907  1
  Li  Li167  1  0.26516231  0.59867044  0.52878999  1
  Li  Li168  1  0.19292887  0.59929585  0.57465056  1
  Li  Li169  1  0.26088010  0.68669150  0.56587937  1
  Li  Li170  1  0.25638679  0.67248104  0.59403600  1
  Li  Li171  1  0.27268752  0.56201203  0.60447490  1
  Li  Li172  1  0.31152779  0.64558158  0.62205082  1
  Li  Li173  1  0.22567317  0.55698636  0.62929030  1
  Li  Li174  1  0.28345498  0.60887454  0.46404493  1
  Li  Li175  1  0.25548024  0.80786050  0.51860937  1
  Li  Li176  1  0.28479213  0.75988001  0.54896404  1
  Li  Li177  1  0.08784332  0.78560281  0.54049461  1
  Li  Li178  1  0.33990168  0.81927666  0.57738744  1
  Li  Li179  1  0.25642199  0.79527957  0.59704511  1
  Li  Li180  1  0.18225839  0.70639892  0.61145149  1
  Li  Li181  1  0.30284946  0.78325888  0.61834039  1
  Li  Li182  1  0.26829965  0.73685715  0.63857681  1
  Li  Li183  1  0.09612746  0.90771194  0.46229715  1
  Li  Li184  1  0.29532328  0.98791426  0.51225318  1
  Li  Li185  1  0.32629659  0.91848989  0.56547035  1
  Li  Li186  1  0.16821904  0.83481653  0.56803961  1
  Li  Li187  1  0.37394421  0.99642516  0.60096976  1
  Li  Li188  1  0.28100405  0.91507390  0.58901589  1
  Li  Li189  1  0.24311367  0.89178630  0.61145916  1
  Li  Li190  1  0.27516708  0.98969974  0.62766139  1
  Li  Li191  1  0.25628386  0.87410501  0.63571580  1
  Li  Li192  1  0.25583663  0.02055236  0.45197753  1
  Li  Li193  1  0.56614035  0.20154044  0.51725658  1
  Li  Li194  1  0.49677852  0.14646171  0.54992301  1
  Li  Li195  1  0.41466675  0.06919035  0.58102725  1
  Li  Li196  1  0.52766006  0.13865895  0.58111217  1
  Li  Li197  1  0.46630157  0.10893937  0.60313384  1
  Li  Li198  1  0.38557645  0.06947651  0.61936891  1
  Li  Li199  1  0.50223330  0.10583924  0.62731176  1
  Li  Li200  1  0.41055443  0.06022764  0.64087838  1
  Li  Li201  1  0.29148901  0.19145911  0.46263718  1
  Li  Li202  1  0.42218521  0.31509765  0.47749335  1
  Li  Li203  1  0.50900702  0.31679858  0.54145253  1
  Li  Li204  1  0.46849450  0.24373019  0.57579937  1
  Li  Li205  1  0.50272186  0.34645251  0.58700082  1
  Li  Li206  1  0.45995475  0.24666766  0.59838553  1
  Li  Li207  1  0.37075651  0.20536941  0.61261804  1
  Li  Li208  1  0.44469577  0.29525501  0.62216195  1
  Li  Li209  1  0.39523753  0.21642533  0.63734921  1
  Li  Li210  1  0.22648216  0.25005582  0.43268837  1
  Li  Li211  1  0.56552826  0.46874672  0.48115674  1
  Li  Li212  1  0.48695813  0.36581395  0.50865092  1
  Li  Li213  1  0.45749003  0.39562172  0.56789405  1
  Li  Li214  1  0.47389471  0.55773348  0.57702281  1
  Li  Li215  1  0.44373410  0.45607016  0.59958572  1
  Li  Li216  1  0.36365160  0.34459494  0.60722518  1
  Li  Li217  1  0.47847398  0.47930270  0.62034715  1
  Li  Li218  1  0.38995532  0.40051023  0.62997442  1
  Li  Li219  1  0.42911391  0.47219579  0.45286892  1
  Li  Li220  1  0.43247429  0.72785322  0.52436535  1
  Li  Li221  1  0.45520505  0.55335838  0.51499464  1
  Li  Li222  1  0.40929914  0.62476528  0.55049316  1
  Li  Li223  1  0.48662185  0.67858949  0.59630516  1
  Li  Li224  1  0.37054599  0.60143593  0.58678678  1
  Li  Li225  1  0.41611960  0.58684455  0.60859282  1
  Li  Li226  1  0.51939853  0.66104743  0.62007248  1
  Li  Li227  1  0.43404009  0.59029625  0.63187367  1
  Li  Li228  1  0.21942674  0.75526791  0.43958817  1
  Li  Li229  1  0.44739438  0.83282484  0.49627214  1
  Li  Li230  1  0.41923113  0.90233842  0.53576065  1
  Li  Li231  1  0.42432185  0.72878215  0.57883939  1
  Li  Li232  1  0.50843388  0.82132229  0.59161884  1
  Li  Li233  1  0.37366803  0.85369367  0.60102098  1
  Li  Li234  1  0.36996003  0.71386287  0.60281793  1
  Li  Li235  1  0.50392048  0.78617028  0.61930650  1
  Li  Li236  1  0.40367656  0.72637430  0.62808361  1
  Li  Li237  1  0.26807632  0.85665905  0.47897186  1
  Li  Li238  1  0.48392718  1.02891861  0.51070558  1
  Li  Li239  1  0.47944344  0.98507164  0.56344922  1
  Li  Li240  1  0.42375906  0.92732141  0.58434845  1
  Li  Li241  1  0.53056967  1.02058303  0.58881128  1
  Li  Li242  1  0.48388455  0.92203614  0.60464002  1
  Li  Li243  1  0.37070464  0.91093089  0.62126546  1
  Li  Li244  1  0.48362818  0.97008617  0.62573907  1
  Li  Li245  1  0.43840579  0.88260649  0.63942669  1
  Li  Li246  1  0.43040670  0.98908163  0.47525740  1
  Li  Li247  1  0.71758338  0.10593013  0.50595057  1
  Li  Li248  1  0.69720508  0.17060388  0.54088991  1
  Li  Li249  1  0.60757726  0.04673471  0.56855592  1
  Li  Li250  1  0.66646754  0.15907000  0.58012283  1
  Li  Li251  1  0.61055551  0.11971048  0.60041265  1
  Li  Li252  1  0.56720530  0.01578571  0.61071753  1
  Li  Li253  1  0.63491021  0.11463594  0.62321916  1
  Li  Li254  1  0.59391065  0.06684624  0.64533253  1
  Li  Li255  1  0.55750384  0.15957202  0.48293614  1
  Li  Li256  1  0.68061449  0.32081636  0.49493540  1
  Li  Li257  1  0.68888807  0.35438795  0.53908606  1
  Li  Li258  1  0.59247875  0.25608092  0.56719852  1
  Li  Li259  1  0.63715359  0.35153167  0.58751081  1
  Li  Li260  1  0.58649870  0.23815252  0.59206481  1
  Li  Li261  1  0.54303432  0.20540314  0.61471243  1
  Li  Li262  1  0.61289749  0.30183320  0.62760304  1
  Li  Li263  1  0.57925609  0.20010155  0.63858006  1
  Li  Li264  1  0.60051077  0.31247642  0.45794412  1
  Li  Li265  1  0.66022769  0.48580028  0.51794559  1
  Li  Li266  1  0.63387458  0.44256240  0.56675899  1
  Li  Li267  1  0.53496029  0.50415915  0.54317468  1
  Li  Li268  1  0.69660860  0.45999846  0.59519801  1
  Li  Li269  1  0.56674973  0.45065156  0.59291355  1
  Li  Li270  1  0.55624926  0.33558893  0.60780390  1
  Li  Li271  1  0.61734672  0.45118491  0.61604851  1
  Li  Li272  1  0.56769042  0.41138659  0.63552274  1
  Li  Li273  1  0.48630636  0.62070027  0.43167958  1
  Li  Li274  1  0.61412861  0.66852829  0.50550928  1
  Li  Li275  1  0.59954835  0.68546022  0.54021530  1
  Li  Li276  1  0.58531101  0.66389479  0.56183189  1
  Li  Li277  1  0.57620729  0.71116802  0.58211357  1
  Li  Li278  1  0.64791405  0.58383832  0.58654712  1
  Li  Li279  1  0.54315384  0.55850435  0.60421616  1
  Li  Li280  1  0.65749050  0.66194456  0.62751077  1
  Li  Li281  1  0.57020218  0.55150595  0.62931312  1
  Li  Li282  1  0.47127843  0.63420161  0.48187712  1
  Li  Li283  1  0.60073488  0.84610130  0.52069355  1
  Li  Li284  1  0.62836915  0.86376722  0.55563114  1
  Li  Li285  1  0.46228505  0.79261826  0.56087530  1
  Li  Li286  1  0.63077150  0.82070548  0.57734595  1
  Li  Li287  1  0.62959842  0.79785958  0.59950323  1
  Li  Li288  1  0.62017372  0.67781009  0.60563733  1
  Li  Li289  1  0.68369294  0.77745873  0.61975068  1
  Li  Li290  1  0.61732316  0.75218819  0.64143364  1
  Li  Li291  1  0.42492789  0.77169525  0.45943568  1
  Li  Li292  1  0.64090958  0.95835193  0.49078775  1
  Li  Li293  1  0.58396734  1.01762234  0.53726088  1
  Li  Li294  1  0.55849827  0.92050251  0.57582611  1
  Li  Li295  1  0.67597866  1.03490385  0.58809105  1
  Li  Li296  1  0.62396838  0.92263740  0.59535534  1
  Li  Li297  1  0.58498521  0.88203124  0.61819832  1
  Li  Li298  1  0.63167788  0.98196272  0.62960170  1
  Li  Li299  1  0.59892077  0.87454558  0.64297286  1
  Li  Li300  1  0.58783973  0.92723214  0.45201521  1
  Li  Li301  1  0.86399075  -0.03702607  0.50521940  1
  Li  Li302  1  0.87765853  0.10436804  0.52733931  1
  Li  Li303  1  0.72932883  1.06875332  0.56463678  1
  Li  Li304  1  0.80562419  0.16934843  0.57718824  1
  Li  Li305  1  0.75309203  0.13017365  0.59633751  1
  Li  Li306  1  0.70793341  0.02788991  0.61096732  1
  Li  Li307  1  0.77519163  0.13292583  0.61831374  1
  Li  Li308  1  0.73104265  0.07293228  0.63681276  1
  Li  Li309  1  0.72243984  0.10549422  0.46604851  1
  Li  Li310  1  0.82180216  0.27414494  0.51703029  1
  Li  Li311  1  0.86107650  0.25692576  0.55049556  1
  Li  Li312  1  0.71803564  0.27308275  0.56879601  1
  Li  Li313  1  0.84690548  0.28374232  0.58227451  1
  Li  Li314  1  0.73200876  0.26521540  0.59187579  1
  Li  Li315  1  0.67804490  0.22140316  0.61079517  1
  Li  Li316  1  0.80841398  0.27194707  0.61480319  1
  Li  Li317  1  0.72065828  0.21267435  0.63321723  1
  Li  Li318  1  0.81005718  0.32995924  0.46717757  1
  Li  Li319  1  0.86130812  0.44386093  0.50506505  1
  Li  Li320  1  0.85562263  0.43365809  0.54586395  1
  Li  Li321  1  0.76620185  0.37864589  0.57784790  1
  Li  Li322  1  0.80646584  0.49664508  0.57964183  1
  Li  Li323  1  0.81003103  0.37931764  0.59926197  1
  Li  Li324  1  0.69751065  0.35060801  0.61013879  1
  Li  Li325  1  0.76377754  0.46578874  0.61643102  1
  Li  Li326  1  0.74340986  0.37756171  0.63787995  1
  Li  Li327  1  0.73574703  0.55537149  0.48758727  1
  Li  Li328  1  0.80551557  0.62314504  0.52143612  1
  Li  Li329  1  0.73903654  0.56737519  0.55180562  1
  Li  Li330  1  0.71786783  0.67658215  0.57928155  1
  Li  Li331  1  0.85522684  0.62740730  0.57969927  1
  Li  Li332  1  0.77739312  0.56253045  0.59826030  1
  Li  Li333  1  0.66859575  0.56428101  0.61108946  1
  Li  Li334  1  0.84280238  0.63341913  0.62571687  1
  Li  Li335  1  0.71097498  0.53435006  0.63250728  1
  Li  Li336  1  0.62169964  0.62949350  0.45893529  1
  Li  Li337  1  0.76819832  0.79492245  0.50287833  1
  Li  Li338  1  0.76677637  0.77957588  0.54073750  1
  Li  Li339  1  0.75237218  0.73586629  0.56136604  1
  Li  Li340  1  0.79741108  0.84404976  0.58190462  1
  Li  Li341  1  0.77344830  0.78528662  0.60077314  1
  Li  Li342  1  0.76435893  0.66942400  0.60953249  1
  Li  Li343  1  0.82219023  0.82736512  0.62294482  1
  Li  Li344  1  0.75881721  0.74978604  0.63754671  1
  Li  Li345  1  0.61827428  0.78874009  0.47672253  1
  Li  Li346  1  0.80865625  0.91311789  0.46777877  1
  Li  Li347  1  0.75103511  0.96528981  0.53289328  1
  Li  Li348  1  0.70211573  0.94015499  0.57426509  1
  Li  Li349  1  0.81121147  1.03209337  0.58066769  1
  Li  Li350  1  0.77734732  0.94432000  0.59559307  1
  Li  Li351  1  0.70930160  0.89223298  0.61200758  1
  Li  Li352  1  0.81777148  0.95294237  0.61914162  1
  Li  Li353  1  0.72531666  0.88376395  0.63434096  1
  Li  Li354  1  0.98503372  0.90424420  0.43167902  1
  Li  Li355  1  1.03377393  0.14943111  0.50633586  1
  Li  Li356  1  1.03570572  0.15954776  0.54564835  1
  Li  Li357  1  0.87108273  0.08594472  0.55919679  1
  Li  Li358  1  1.01605891  0.19108881  0.59560938  1
  Li  Li359  1  0.90824897  0.10974532  0.58756102  1
  Li  Li360  1  0.84433029  0.05179564  0.60475208  1
  Li  Li361  1  0.98774573  0.14380270  0.61864211  1
  Li  Li362  1  0.88568901  0.05970681  0.62855769  1
  Li  Li363  1  0.87237512  0.17869685  0.48603314  1
  Li  Li364  1  1.01427822  0.32628242  0.52339004  1
  Li  Li365  1  1.01903015  0.34506044  0.55654720  1
  Li  Li366  1  0.95011209  0.21518973  0.57666052  1
  Li  Li367  1  1.02852015  0.32215012  0.58708371  1
  Li  Li368  1  0.92777399  0.30262857  0.60034588  1
  Li  Li369  1  0.88322053  0.18496926  0.60502789  1
  Li  Li370  1  0.95519748  0.26918871  0.62107661  1
  Li  Li371  1  0.86560845  0.19513296  0.62992071  1
  Li  Li372  1  0.73391674  0.26018341  0.43321408  1
  Li  Li373  1  0.99977458  0.53783436  0.52636256  1
  Li  Li374  1  0.97200245  0.53556808  0.56244347  1
  Li  Li375  1  0.90838474  0.39504233  0.58102223  1
  Li  Li376  1  1.00838190  0.55040365  0.60696689  1
  Li  Li377  1  0.98205774  0.43046795  0.60113736  1
  Li  Li378  1  0.88495579  0.38998130  0.61865823  1
  Li  Li379  1  1.01174327  0.45480991  0.62595068  1
  Li  Li380  1  0.91740645  0.35662791  0.63926927  1
  Li  Li381  1  0.74546911  0.48218576  0.45295675  1
  Li  Li382  1  0.94278353  0.64706386  0.49586774  1
  Li  Li383  1  0.91845345  0.68199907  0.54910343  1
  Li  Li384  1  0.94358323  0.52809713  0.58734027  1
  Li  Li385  1  0.97771009  0.65265184  0.58300655  1
  Li  Li386  1  0.90201374  0.62412518  0.60309786  1
  Li  Li387  1  0.87681536  0.49621033  0.60677819  1
  Li  Li388  1  0.97420537  0.64750389  0.62380626  1
  Li  Li389  1  0.89115543  0.53083273  0.63431033  1
  Li  Li390  1  0.80478599  0.69933919  0.47067036  1
  Li  Li391  1  0.95321989  0.82701918  0.48548586  1
  Li  Li392  1  0.93634223  0.79356865  0.52117607  1
  Li  Li393  1  0.92788041  0.77281993  0.56346270  1
  Li  Li394  1  0.93871105  0.85772833  0.57983763  1
  Li  Li395  1  0.88515404  0.74054227  0.58902831  1
  Li  Li396  1  0.89246790  0.73921531  0.61196304  1
  Li  Li397  1  0.95633894  0.83432092  0.62136989  1
  Li  Li398  1  0.90377431  0.74262817  0.63708406  1
  Li  Li399  1  0.74328187  0.77961531  0.43949906  1
  Li  Li400  1  1.03259617  0.98184683  0.52996660  1
  Li  Li401  1  0.89751889  0.91481103  0.54710454  1
  Li  Li402  1  0.81266374  0.90968357  0.56346587  1
  Li  Li403  1  1.00604323  0.99175321  0.56817934  1
  Li  Li404  1  0.91550414  0.97286325  0.58945812  1
  Li  Li405  1  0.88758007  0.86053425  0.60192344  1
  Li  Li406  1  0.94722200  0.96722833  0.61330663  1
  Li  Li407  1  0.92586168  0.93366582  0.63491443  1
  Li  Li408  1  0.02389244  -0.03242903  0.64969803  1
  Li  Li409  1  0.09457822  0.10515435  0.66237337  1
  Li  Li410  1  0.04142056  0.02949200  0.67662114  1
  Li  Li411  1  0.01480018  0.01405982  0.69760030  1
  Li  Li412  1  0.14402299  0.10625160  0.71500337  1
  Li  Li413  1  0.03625903  0.06887111  0.72569219  1
  Li  Li414  1  0.01468056  -0.05069729  0.75296541  1
  Li  Li415  1  0.12768529  0.05954850  0.77123492  1
  Li  Li416  1  0.01659100  0.04394795  0.81514704  1
  Li  Li417  1  -0.01111418  0.18488133  0.64246437  1
  Li  Li418  1  0.16957033  0.25143059  0.66635713  1
  Li  Li419  1  0.03830477  0.18266454  0.68838318  1
  Li  Li420  1  0.00520518  0.19018506  0.70903480  1
  Li  Li421  1  0.10913708  0.28580178  0.72205687  1
  Li  Li422  1  0.06839194  0.18286018  0.73180397  1
  Li  Li423  1  -0.03539176  0.12379051  0.75365936  1
  Li  Li424  1  0.06528876  0.20768658  0.78846231  1
  Li  Li425  1  0.05710689  0.22575401  0.83452693  1
  Li  Li426  1  0.07086159  0.30378774  0.65517047  1
  Li  Li427  1  0.15871608  0.40609052  0.66332391  1
  Li  Li428  1  0.11566957  0.36984669  0.68291675  1
  Li  Li429  1  0.06936106  0.33288557  0.70180952  1
  Li  Li430  1  0.12837214  0.40862403  0.72064120  1
  Li  Li431  1  0.01398400  0.38622459  0.72973353  1
  Li  Li432  1  -0.03689666  0.29963371  0.76013260  1
  Li  Li433  1  0.04725111  0.40681452  0.78504523  1
  Li  Li434  1  -0.02298079  0.36731330  0.81642756  1
  Li  Li435  1  0.02362598  0.47728157  0.65237613  1
  Li  Li436  1  0.13731906  0.58403789  0.66650117  1
  Li  Li437  1  0.08907527  0.52827894  0.68334767  1
  Li  Li438  1  0.04716358  0.49434190  0.70275396  1
  Li  Li439  1  0.10678228  0.60627305  0.71529515  1
  Li  Li440  1  0.03333539  0.50931967  0.72801605  1
  Li  Li441  1  -0.08552180  0.46960764  0.75809736  1
  Li  Li442  1  0.04784957  0.59129610  0.77116727  1
  Li  Li443  1  0.07432579  0.53738310  0.81863075  1
  Li  Li444  1  0.00451381  0.64829097  0.64568731  1
  Li  Li445  1  0.11060257  0.75009097  0.66251850  1
  Li  Li446  1  0.08272482  0.70774614  0.68208257  1
  Li  Li447  1  0.01692612  0.65743214  0.69801935  1
  Li  Li448  1  0.13528868  0.72930489  0.71228516  1
  Li  Li449  1  0.01245808  0.69615921  0.72380750  1
  Li  Li450  1  -0.05372398  0.60406992  0.73968148  1
  Li  Li451  1  0.04124601  0.75979651  0.75988668  1
  Li  Li452  1  0.00534813  0.69253686  0.80323459  1
  Li  Li453  1  -0.01804783  0.83698401  0.64625213  1
  Li  Li454  1  0.12770165  0.95487398  0.66770091  1
  Li  Li455  1  0.04976726  0.87876045  0.67819252  1
  Li  Li456  1  0.01853352  0.82915287  0.69699785  1
  Li  Li457  1  0.11462580  0.93365327  0.71241594  1
  Li  Li458  1  0.05044314  0.81888028  0.71972036  1
  Li  Li459  1  -0.09316495  0.78362242  0.74147148  1
  Li  Li460  1  0.04481654  0.87515272  0.78679843  1
  Li  Li461  1  0.06393451  0.85247545  0.82413987  1
  Li  Li462  1  0.17336850  -0.01142295  0.64854658  1
  Li  Li463  1  0.26875797  0.11597178  0.66740623  1
  Li  Li464  1  0.20814050  0.08023512  0.68514530  1
  Li  Li465  1  0.17616067  -0.01551829  0.69646481  1
  Li  Li466  1  0.29223249  0.11272128  0.71225070  1
  Li  Li467  1  0.22576434  -0.02019952  0.73257200  1
  Li  Li468  1  0.06342609  -0.10137117  0.73567502  1
  Li  Li469  1  0.19755336  -0.02317891  0.79826147  1
  Li  Li470  1  0.23818423  -0.07737147  0.83583417  1
  Li  Li471  1  0.13640925  0.18814444  0.64802968  1
  Li  Li472  1  0.27495362  0.32056089  0.66662910  1
  Li  Li473  1  0.21474074  0.24856095  0.68663038  1
  Li  Li474  1  0.18691414  0.20765945  0.70644534  1
  Li  Li475  1  0.30080437  0.24739376  0.72017573  1
  Li  Li476  1  0.20141424  0.19737280  0.73154325  1
  Li  Li477  1  0.14027257  0.06319538  0.73860418  1
  Li  Li478  1  0.25824672  0.16091176  0.75677679  1
  Li  Li479  1  0.21209377  0.13811458  0.82152045  1
  Li  Li480  1  0.20402647  0.31279133  0.64456712  1
  Li  Li481  1  0.25372103  0.47705110  0.67159962  1
  Li  Li482  1  0.27787212  0.36253765  0.68728669  1
  Li  Li483  1  0.21436540  0.32981407  0.70755255  1
  Li  Li484  1  0.26858789  0.43401734  0.72103897  1
  Li  Li485  1  0.21691921  0.33526257  0.73144978  1
  Li  Li486  1  0.11372625  0.26275708  0.74764170  1
  Li  Li487  1  0.22177132  0.32090472  0.77366651  1
  Li  Li488  1  0.18169229  0.33846049  0.80952860  1
  Li  Li489  1  0.21779128  0.48738991  0.65052029  1
  Li  Li490  1  0.31965724  0.60463595  0.66896511  1
  Li  Li491  1  0.26323015  0.54952798  0.68953045  1
  Li  Li492  1  0.20972698  0.46107808  0.70222296  1
  Li  Li493  1  0.25935420  0.55497849  0.71508128  1
  Li  Li494  1  0.16107167  0.51892220  0.72812662  1
  Li  Li495  1  0.11014301  0.44660281  0.75391562  1
  Li  Li496  1  0.20062680  0.53362199  0.78796081  1
  Li  Li497  1  0.28349204  0.49791529  0.82502530  1
  Li  Li498  1  0.21388291  0.62564898  0.65090420  1
  Li  Li499  1  0.29815690  0.72198605  0.66243319  1
  Li  Li500  1  0.25830195  0.68334994  0.68229908  1
  Li  Li501  1  0.20324151  0.63990978  0.70163819  1
  Li  Li502  1  0.28029075  0.73987741  0.71354318  1
  Li  Li503  1  0.21001256  0.64904456  0.72747569  1
  Li  Li504  1  0.09135732  0.60796921  0.73809757  1
  Li  Li505  1  0.19944991  0.66949549  0.75300618  1
  Li  Li506  1  0.20903072  0.69725043  0.82655104  1
  Li  Li507  1  0.17272648  0.82839931  0.65061251  1
  Li  Li508  1  0.28555588  0.93712284  0.66942234  1
  Li  Li509  1  0.23251626  0.84481647  0.67931984  1
  Li  Li510  1  0.19020001  0.81258065  0.69833979  1
  Li  Li511  1  0.29012313  0.92738864  0.71610418  1
  Li  Li512  1  0.18738502  0.83123957  0.72278097  1
  Li  Li513  1  0.13112275  0.74138463  0.73494649  1
  Li  Li514  1  0.18716523  0.86965527  0.76135352  1
  Li  Li515  1  0.18724918  0.72792291  0.78663039  1
  Li  Li516  1  0.34255178  -0.01449116  0.65260431  1
  Li  Li517  1  0.45413991  0.09104483  0.66886358  1
  Li  Li518  1  0.38850281  0.05099904  0.68603030  1
  Li  Li519  1  0.34935940  -0.04155946  0.69788758  1
  Li  Li520  1  0.47418150  0.06994304  0.71122833  1
  Li  Li521  1  0.38892136  0.05124629  0.72856937  1
  Li  Li522  1  0.28617047  -0.12664542  0.73586179  1
  Li  Li523  1  0.32033898  -0.00524765  0.75984522  1
  Li  Li524  1  0.37417117  0.03117475  0.81786743  1
  Li  Li525  1  0.32337159  0.19174970  0.65383125  1
  Li  Li526  1  0.44971057  0.30948533  0.66771193  1
  Li  Li527  1  0.39204385  0.23374855  0.68130653  1
  Li  Li528  1  0.34879397  0.20447516  0.70095608  1
  Li  Li529  1  0.43887201  0.28349693  0.71635263  1
  Li  Li530  1  0.40425191  0.17283838  0.72419492  1
  Li  Li531  1  0.30917806  0.13449874  0.73729994  1
  Li  Li532  1  0.29436696  0.14005259  0.78845766  1
  Li  Li533  1  0.29526167  0.09192948  0.85598464  1
  Li  Li534  1  0.32169673  0.36909357  0.64807708  1
  Li  Li535  1  0.43022029  0.46867019  0.66598889  1
  Li  Li536  1  0.38839388  0.42895756  0.68558532  1
  Li  Li537  1  0.34802844  0.34978320  0.70554162  1
  Li  Li538  1  0.44828109  0.40674491  0.71516037  1
  Li  Li539  1  0.35959481  0.36121246  0.72997016  1
  Li  Li540  1  0.30302260  0.27725945  0.74330286  1
  Li  Li541  1  0.41204318  0.26335214  0.77081606  1
  Li  Li542  1  0.31518776  0.28605525  0.84092566  1
  Li  Li543  1  0.33891644  0.50911199  0.64309051  1
  Li  Li544  1  0.44093337  0.57762037  0.65643744  1
  Li  Li545  1  0.40648942  0.55159362  0.68712179  1
  Li  Li546  1  0.35567966  0.49095393  0.70510289  1
  Li  Li547  1  0.44433243  0.58784004  0.71610766  1
  Li  Li548  1  0.37085981  0.50025102  0.72815559  1
  Li  Li549  1  0.28268362  0.43568140  0.74659342  1
  Li  Li550  1  0.36438631  0.45109533  0.78336760  1
  Li  Li551  1  0.38585387  0.45661509  0.85737809  1
  Li  Li552  1  0.35232728  0.64926728  0.64627655  1
  Li  Li553  1  0.47852695  0.70304356  0.66440873  1
  Li  Li554  1  0.42281702  0.67109258  0.68316170  1
  Li  Li555  1  0.33701374  0.63109276  0.70158405  1
  Li  Li556  1  0.42188323  0.71032481  0.71386998  1
  Li  Li557  1  0.33909900  0.63563945  0.72612690  1
  Li  Li558  1  0.27200522  0.55693692  0.74331073  1
  Li  Li559  1  0.35948573  0.63499767  0.77100481  1
  Li  Li560  1  0.37858713  0.64971635  0.80505773  1
  Li  Li561  1  0.36194498  0.80905878  0.65132314  1
  Li  Li562  1  0.46663376  0.91843982  0.67032969  1
  Li  Li563  1  0.41070147  0.82678613  0.67958825  1
  Li  Li564  1  0.36927167  0.78732147  0.69879771  1
  Li  Li565  1  0.46488923  0.89717376  0.71674471  1
  Li  Li566  1  0.37976940  0.81355971  0.72369422  1
  Li  Li567  1  0.27643213  0.74890184  0.73628316  1
  Li  Li568  1  0.37209690  0.81657607  0.76611667  1
  Li  Li569  1  0.31835963  0.84115740  0.80263266  1
  Li  Li570  1  0.54416993  -0.03407545  0.65558548  1
  Li  Li571  1  0.63656243  0.05618438  0.66897398  1
  Li  Li572  1  0.58046935  0.02245628  0.68784853  1
  Li  Li573  1  0.51832158  -0.06237281  0.69856779  1
  Li  Li574  1  0.64975097  0.08223823  0.71838055  1
  Li  Li575  1  0.51116247  0.02162896  0.72996836  1
  Li  Li576  1  0.43408066  -0.10285155  0.73858404  1
  Li  Li577  1  0.64581467  0.07054389  0.78010061  1
  Li  Li578  1  0.57150922  -0.01318639  0.81338820  1
  Li  Li579  1  0.51637935  0.16952627  0.65685386  1
  Li  Li580  1  0.63423693  0.28436727  0.67055612  1
  Li  Li581  1  0.57888302  0.20052023  0.68246770  1
  Li  Li582  1  0.51113050  0.16143547  0.69903057  1
  Li  Li583  1  0.62689423  0.26071568  0.71495606  1
  Li  Li584  1  0.54379442  0.20446121  0.72767370  1
  Li  Li585  1  0.46583692  0.10848815  0.75707601  1
  Li  Li586  1  0.50202282  0.16445710  0.79791251  1
  Li  Li587  1  0.47779075  0.15171413  0.83824928  1
  Li  Li588  1  0.50795749  0.33401239  0.64913114  1
  Li  Li589  1  0.61055630  0.44326701  0.66593976  1
  Li  Li590  1  0.56909649  0.41594086  0.68543392  1
  Li  Li591  1  0.51055100  0.33186544  0.69683777  1
  Li  Li592  1  0.58661421  0.44656557  0.71364078  1
  Li  Li593  1  0.54471175  0.36364387  0.72839430  1
  Li  Li594  1  0.45107669  0.26018756  0.73865497  1
  Li  Li595  1  0.55143146  0.36922731  0.78491316  1
  Li  Li596  1  0.37236025  0.29756445  0.80691459  1
  Li  Li597  1  0.47889116  0.48026978  0.64505509  1
  Li  Li598  1  0.60238881  0.63802684  0.66650292  1
  Li  Li599  1  0.54966894  0.57168407  0.68228155  1
  Li  Li600  1  0.49019620  0.50049591  0.70174493  1
  Li  Li601  1  0.58874346  0.57442015  0.71400228  1
  Li  Li602  1  0.50126508  0.49597213  0.72748327  1
  Li  Li603  1  0.45448899  0.41892842  0.75503101  1
  Li  Li604  1  0.54513583  0.56782092  0.77695438  1
  Li  Li605  1  0.47498454  0.47955934  0.81405406  1
  Li  Li606  1  0.54444084  0.64694831  0.64382652  1
  Li  Li607  1  0.59087769  0.79732210  0.66441212  1
  Li  Li608  1  0.54022842  0.72418557  0.68352625  1
  Li  Li609  1  0.51831794  0.65597921  0.70206581  1
  Li  Li610  1  0.62137936  0.76444187  0.71917662  1
  Li  Li611  1  0.53166403  0.67453340  0.72430061  1
  Li  Li612  1  0.44523993  0.59040367  0.74293734  1
  Li  Li613  1  0.51845734  0.80095355  0.79102231  1
  Li  Li614  1  0.46194445  0.62569952  0.84273905  1
  Li  Li615  1  0.49141809  0.79220462  0.65014939  1
  Li  Li616  1  0.64879696  0.91944846  0.67263303  1
  Li  Li617  1  0.60023214  0.83368780  0.68600010  1
  Li  Li618  1  0.51882751  0.79628735  0.70169250  1
  Li  Li619  1  0.64331578  0.91402204  0.71455513  1
  Li  Li620  1  0.50907824  0.79693139  0.72700326  1
  Li  Li621  1  0.41647335  0.70982664  0.73957479  1
  Li  Li622  1  0.43250587  0.98546322  0.78619291  1
  Li  Li623  1  0.46460907  0.81755840  0.82664824  1
  Li  Li624  1  0.68452192  -0.02794446  0.65122215  1
  Li  Li625  1  0.77254923  0.05939990  0.65965101  1
  Li  Li626  1  0.72866697  0.00702537  0.68135752  1
  Li  Li627  1  0.72802001  -0.03780048  0.70154823  1
  Li  Li628  1  0.81242887  0.11881386  0.72888806  1
  Li  Li629  1  0.64647848  0.07238520  0.74026319  1
  Li  Li630  1  0.54970080  -0.06573146  0.76186842  1
  Li  Li631  1  0.77576513  0.02735219  0.81006247  1
  Li  Li632  1  0.66993764  -0.01108774  0.84748878  1
  Li  Li633  1  0.67072022  0.14993985  0.65526732  1
  Li  Li634  1  0.82584102  0.24815941  0.67211363  1
  Li  Li635  1  0.74316149  0.17585380  0.68236099  1
  Li  Li636  1  0.70373421  0.13749207  0.70160300  1
  Li  Li637  1  0.78026059  0.32384071  0.72456036  1
  Li  Li638  1  0.73677150  0.20792265  0.73552570  1
  Li  Li639  1  0.60848476  0.22868388  0.76036024  1
  Li  Li640  1  0.69145888  0.24549927  0.79430485  1
  Li  Li641  1  0.67111122  0.16414781  0.82781393  1
  Li  Li642  1  0.68488630  0.30642871  0.65143282  1
  Li  Li643  1  0.79498443  0.41499750  0.66646562  1
  Li  Li644  1  0.75610767  0.38667614  0.68623529  1
  Li  Li645  1  0.69672338  0.31346154  0.69985477  1
  Li  Li646  1  0.80158294  0.43639330  0.71534059  1
  Li  Li647  1  0.68568985  0.40293637  0.72503025  1
  Li  Li648  1  0.60529472  0.31765578  0.74535523  1
  Li  Li649  1  0.71817471  0.38767092  0.76720783  1
  Li  Li650  1  0.56456057  0.32043532  0.82185936  1
  Li  Li651  1  0.66289904  0.51800112  0.65224977  1
  Li  Li652  1  0.78164514  0.62786799  0.66782831  1
  Li  Li653  1  0.72881108  0.54982026  0.68132870  1
  Li  Li654  1  0.69002814  0.51281937  0.70044618  1
  Li  Li655  1  0.77231547  0.63680366  0.71292853  1
  Li  Li656  1  0.70216331  0.52633804  0.72218166  1
  Li  Li657  1  0.61127948  0.48823877  0.74816547  1
  Li  Li658  1  0.74793323  0.56302275  0.76423380  1
  Li  Li659  1  0.69577608  0.48730414  0.79876671  1
  Li  Li660  1  0.68313805  0.65502571  0.64963867  1
  Li  Li661  1  0.77708724  0.74124099  0.66021453  1
  Li  Li662  1  0.68573303  0.72393523  0.67967217  1
  Li  Li663  1  0.64733504  0.67390088  0.69892550  1
  Li  Li664  1  0.77122152  0.79152532  0.71855416  1
  Li  Li665  1  0.67571513  0.66312895  0.72533495  1
  Li  Li666  1  0.61507511  0.59565176  0.73932297  1
  Li  Li667  1  0.69885233  0.70829117  0.78336081  1
  Li  Li668  1  0.58904238  0.65266042  0.81335434  1
  Li  Li669  1  0.70295147  0.83814513  0.65502933  1
  Li  Li670  1  0.78779982  0.92252295  0.66472515  1
  Li  Li671  1  0.74936085  0.83049103  0.67897465  1
  Li  Li672  1  0.71370895  0.78166083  0.69902046  1
  Li  Li673  1  0.79746551  0.96322237  0.72029175  1
  Li  Li674  1  0.64047554  0.90133512  0.73576018  1
  Li  Li675  1  0.56173150  0.73771888  0.75716009  1
  Li  Li676  1  0.69654729  0.89666316  0.78516316  1
  Li  Li677  1  0.68800050  0.82754151  0.82472513  1
  Li  Li678  1  0.81394924  -0.02003202  0.64324184  1
  Li  Li679  1  0.92978892  0.11218274  0.65678790  1
  Li  Li680  1  0.88875691  0.08719192  0.67661341  1
  Li  Li681  1  0.86706111  0.08160782  0.69788678  1
  Li  Li682  1  0.93378405  0.14198703  0.72459740  1
  Li  Li683  1  0.90546836  0.00877712  0.72974661  1
  Li  Li684  1  0.78644279  -0.00256846  0.75519327  1
  Li  Li685  1  0.91772280  0.03325632  0.78269245  1
  Li  Li686  1  0.87852022  -0.06052587  0.84040872  1
  Li  Li687  1  0.79312876  0.17322665  0.65095000  1
  Li  Li688  1  1.00654954  0.24710066  0.67137447  1
  Li  Li689  1  0.86718926  0.24820175  0.69267125  1
  Li  Li690  1  0.83928294  0.23046712  0.71377445  1
  Li  Li691  1  0.96790934  0.27404394  0.72495313  1
  Li  Li692  1  0.85947287  0.24535737  0.73603615  1
  Li  Li693  1  0.79965890  0.17898779  0.76766159  1
  Li  Li694  1  0.88629225  0.19125760  0.80539354  1
  Li  Li695  1  0.86163624  0.15476471  0.84178895  1
  Li  Li696  1  0.86599535  0.27501394  0.65204017  1
  Li  Li697  1  0.97049631  0.40685706  0.66720227  1
  Li  Li698  1  0.93635095  0.38298393  0.68745112  1
  Li  Li699  1  0.88967215  0.33791146  0.70695436  1
  Li  Li700  1  0.92994747  0.45777188  0.71805727  1
  Li  Li701  1  0.88893943  0.36818937  0.73222773  1
  Li  Li702  1  0.78617780  0.33904909  0.75037756  1
  Li  Li703  1  0.85855169  0.34690237  0.78651953  1
  Li  Li704  1  0.77987531  0.34267552  0.82155438  1
  Li  Li705  1  0.84290858  0.49734053  0.65314562  1
  Li  Li706  1  0.96262354  0.61427933  0.66524524  1
  Li  Li707  1  0.91152497  0.54717467  0.68086452  1
  Li  Li708  1  0.86904750  0.51375013  0.70072865  1
  Li  Li709  1  0.96572567  0.58899707  0.71450457  1
  Li  Li710  1  0.84747276  0.55075072  0.72195508  1
  Li  Li711  1  0.77761736  0.46231056  0.73684100  1
  Li  Li712  1  0.88845872  0.52638229  0.79319833  1
  Li  Li713  1  0.86449392  0.52004224  0.83112342  1
  Li  Li714  1  0.82532601  0.64625702  0.64768670  1
  Li  Li715  1  0.92240472  0.77998949  0.66272975  1
  Li  Li716  1  0.89907618  0.73727871  0.68213101  1
  Li  Li717  1  0.83343981  0.66917351  0.69521420  1
  Li  Li718  1  0.94210256  0.77897022  0.71174061  1
  Li  Li719  1  0.88415705  0.68127301  0.72064582  1
  Li  Li720  1  0.78547707  0.62733386  0.74618463  1
  Li  Li721  1  0.88641420  0.68224413  0.77347569  1
  Li  Li722  1  0.79574138  0.66334225  0.81216964  1
  Li  Li723  1  0.83856767  0.84635402  0.64690484  1
  Li  Li724  1  0.91525362  0.93888425  0.65973079  1
  Li  Li725  1  0.87878557  0.91368885  0.68641871  1
  Li  Li726  1  0.82644126  0.83739488  0.70070872  1
  Li  Li727  1  0.95069680  0.95201680  0.71219566  1
  Li  Li728  1  0.87657533  0.89153480  0.73304893  1
  Li  Li729  1  0.73527927  0.78764430  0.75167357  1
  Li  Li730  1  0.87545906  0.86479506  0.77022005  1
  Li  Li731  1  0.86895469  0.84720367  0.80584333  1
  Li  Li732  1  0.06759876  0.04115446  0.85204513  1
  Li  Li733  1  0.06733617  0.04583271  0.89604922  1
  Li  Li734  1  -0.03092985  0.19722690  0.87452504  1
  Li  Li735  1  0.05141063  0.22281557  0.94033710  1
  Li  Li736  1  -0.06376027  0.35922566  0.85245926  1
  Li  Li737  1  0.01103269  0.40579555  0.88611386  1
  Li  Li738  1  0.02597320  0.56467224  0.85639224  1
  Li  Li739  1  -0.03614203  0.64316906  0.93338649  1
  Li  Li740  1  -0.08749529  0.69986905  0.87926665  1
  Li  Li741  1  0.02540870  0.81335950  0.90846399  1
  Li  Li742  1  -0.01943873  0.89492611  0.87407084  1
  Li  Li743  1  0.03605445  0.99659014  0.93284508  1
  Li  Li744  1  0.20095668  -0.06645789  0.87429729  1
  Li  Li745  1  0.27020686  0.12139939  0.93318715  1
  Li  Li746  1  0.15850999  0.22962040  0.86796971  1
  Li  Li747  1  0.13403133  0.25508815  0.90576687  1
  Li  Li748  1  0.14633150  0.40547406  0.84845462  1
  Li  Li749  1  0.11522332  0.47750057  0.92321274  1
  Li  Li750  1  0.22002981  0.42743392  0.88631431  1
  Li  Li751  1  0.08800580  0.61071508  0.89426762  1
  Li  Li752  1  0.10810277  0.76235096  0.85853405  1
  Li  Li753  1  0.18876504  0.71033179  0.93097814  1
  Li  Li754  1  0.23402510  0.75590979  0.89138491  1
  Li  Li755  1  0.23852083  0.92173904  0.91611015  1
  Li  Li756  1  0.40325715  -0.10610610  0.88534977  1
  Li  Li757  1  0.46733235  0.01471057  0.91175967  1
  Li  Li758  1  0.28049616  0.09708633  0.89425117  1
  Li  Li759  1  0.43397478  0.22322178  0.91233899  1
  Li  Li760  1  0.35384781  0.27725353  0.87900710  1
  Li  Li761  1  0.30042219  0.36733665  0.92578048  1
  Li  Li762  1  0.30178587  0.57775719  0.90715641  1
  Li  Li763  1  0.39789386  0.58053160  0.94123343  1
  Li  Li764  1  0.24079803  0.59543001  0.86320496  1
  Li  Li765  1  0.40285919  0.76921665  0.91833213  1
  Li  Li766  1  0.33228049  0.77940929  0.85549677  1
  Li  Li767  1  0.42893390  0.92773670  0.94443353  1
  Li  Li768  1  0.45728945  -0.03509013  0.85157524  1
  Li  Li769  1  0.56025928  0.14550288  0.93988825  1
  Li  Li770  1  0.48287040  0.11510818  0.87800663  1
  Li  Li771  1  0.59399870  0.29348615  0.89290020  1
  Li  Li772  1  0.52642684  0.31290474  0.85767202  1
  Li  Li773  1  0.53764598  0.39758517  0.93106602  1
  Li  Li774  1  0.44492820  0.44077824  0.89635209  1
  Li  Li775  1  0.55217078  0.60156167  0.91301202  1
  Li  Li776  1  0.44061768  0.65910114  0.88198208  1
  Li  Li777  1  0.60566563  0.74182390  0.94126219  1
  Li  Li778  1  0.56361420  0.79391676  0.86124790  1
  Li  Li779  1  0.58699357  0.80794065  0.90211109  1
  Li  Li780  1  0.62777936  -0.02988823  0.88443037  1
  Li  Li781  1  0.68845708  0.12234926  0.90601279  1
  Li  Li782  1  0.67750775  0.16498562  0.86617439  1
  Li  Li783  1  0.73077384  0.29292367  0.92811500  1
  Li  Li784  1  0.64701441  0.49206941  0.83559594  1
  Li  Li785  1  0.81279400  0.30656671  0.88932552  1
  Li  Li786  1  0.69577568  0.46179041  0.90197360  1
  Li  Li787  1  0.74136105  0.54509438  0.93569908  1
  Li  Li788  1  0.58548365  0.50236961  0.87028536  1
  Li  Li789  1  0.78577220  0.73798308  0.91304139  1
  Li  Li790  1  0.68822078  0.65477114  0.88514080  1
  Li  Li791  1  0.65490767  0.94301120  0.92825094  1
  Li  Li792  1  0.76977244  -0.16192419  0.87047401  1
  Li  Li793  1  0.81579727  0.08872357  0.94124031  1
  Li  Li794  1  0.83791857  0.04884139  0.87558426  1
  Li  Li795  1  0.91259958  0.16468223  0.91055909  1
  Li  Li796  1  0.72955895  0.34118895  0.85578518  1
  Li  Li797  1  0.92130941  0.38183930  0.92306753  1
  Li  Li798  1  0.81895031  0.51324237  0.86836859  1
  Li  Li799  1  0.88561701  0.54938587  0.90329040  1
  Li  Li800  1  0.71274393  0.66540078  0.84806563  1
  Li  Li801  1  0.85563744  0.84861909  0.94281865  1
  Li  Li802  1  0.91471236  0.73037393  0.84113434  1
  Li  Li803  1  0.84394590  0.94619867  0.90677726  1
  La  La804  1  -0.01311114  0.12439801  0.18441215  1
  La  La805  1  0.46355959  0.37487134  0.18625836  1
  La  La806  1  0.25375810  1.00016388  0.20532711  1
  La  La807  1  0.75281338  0.49501849  0.20453528  1
  La  La808  1  0.86626383  0.73863415  0.22552537  1
  La  La809  1  0.36317876  0.76182963  0.22718702  1
  La  La810  1  0.61958745  0.25616977  0.22383733  1
  La  La811  1  0.12045275  0.24674584  0.22390597  1
  La  La812  1  0.74239104  1.00911303  0.24651142  1
  La  La813  1  0.23652959  0.50711900  0.24810131  1
  La  La814  1  0.49447879  0.12387240  0.26764132  1
  La  La815  1  -0.00334851  0.37737986  0.26741043  1
  La  La816  1  0.49135113  0.62900681  0.26837886  1
  La  La817  1  0.98842803  0.88312502  0.26786065  1
  La  La818  1  0.74050246  0.50182649  0.28899296  1
  La  La819  1  0.23734902  0.00622479  0.29026722  1
  La  La820  1  0.36816831  0.25271346  0.31098328  1
  La  La821  1  0.86776449  0.25457491  0.31094409  1
  La  La822  1  0.11220017  0.75626482  0.31184605  1
  La  La823  1  0.62013722  0.75640000  0.31081805  1
  La  La824  1  0.23828211  0.50259718  0.33374225  1
  La  La825  1  0.73868109  0.00657101  0.33367627  1
  La  La826  1  0.98568580  0.62747029  0.35402915  1
  La  La827  1  0.48561510  0.87795824  0.35372762  1
  La  La828  1  -0.00851267  0.12740942  0.35452585  1
  La  La829  1  0.49147012  0.38505589  0.35396265  1
  La  La830  1  0.24138215  1.00766341  0.37594223  1
  La  La831  1  0.73829422  0.50095110  0.37582902  1
  La  La832  1  0.86284888  0.76502382  0.39788168  1
  La  La833  1  0.35517700  0.75187038  0.39755823  1
  La  La834  1  0.61862793  0.25267788  0.39764832  1
  La  La835  1  0.12038865  0.26251416  0.39716279  1
  La  La836  1  0.74262818  0.00702734  0.41929897  1
  La  La837  1  0.24346349  0.50380098  0.41966693  1
  La  La838  1  0.48435800  0.13856873  0.43834314  1
  La  La839  1  -0.01501038  0.36710493  0.43857744  1
  Zr  Zr840  1  0.98189667  0.98926689  0.22393171  1
  Zr  Zr841  1  0.49959042  1.00065034  0.22459998  1
  Zr  Zr842  1  0.48504942  0.51810066  0.22547888  1
  Zr  Zr843  1  -0.00135212  0.50014625  0.22364495  1
  Zr  Zr844  1  0.73990899  0.25102972  0.26880242  1
  Zr  Zr845  1  0.74518985  0.74989497  0.26897698  1
  Zr  Zr846  1  0.24175372  0.25211157  0.26865926  1
  Zr  Zr847  1  0.23958717  0.75742392  0.26995309  1
  Zr  Zr848  1  0.49303719  0.50615080  0.31228835  1
  Zr  Zr849  1  0.98750828  0.50080564  0.31160127  1
  Zr  Zr850  1  0.99115833  0.00540234  0.31293549  1
  Zr  Zr851  1  0.48728083  0.00464545  0.31169881  1
  Zr  Zr852  1  0.23345477  0.75100772  0.35566116  1
  Zr  Zr853  1  0.24551855  0.25750568  0.35565660  1
  Zr  Zr854  1  0.73776113  0.75938284  0.35562589  1
  Zr  Zr855  1  0.74263944  0.25298085  0.35580494  1
  Zr  Zr856  1  0.00287239  1.00798918  0.39905196  1
  Zr  Zr857  1  0.48437020  0.99149511  0.39937791  1
  Zr  Zr858  1  0.50085212  0.50911857  0.39934061  1
  Zr  Zr859  1  0.97773333  0.51419765  0.39972120  1
  O  O860  1  0.21417120  0.83013397  0.21298957  1
  O  O861  1  0.27620147  0.17087521  0.21293102  1
  O  O862  1  0.71837508  0.66754376  0.20988351  1
  O  O863  1  0.77284236  0.32686327  0.21296314  1
  O  O864  1  0.54169590  0.85432752  0.22045976  1
  O  O865  1  0.94358571  0.13310656  0.21599468  1
  O  O866  1  0.03788291  0.64583231  0.21810538  1
  O  O867  1  0.43914681  0.37391471  0.21789268  1
  O  O868  1  0.83666084  0.91935715  0.21617047  1
  O  O869  1  0.64945928  0.05392493  0.21658822  1
  O  O870  1  0.15109488  0.44956212  0.21871681  1
  O  O871  1  0.33374011  0.58256243  0.21796071  1
  O  O872  1  0.34824001  0.95938408  0.23170907  1
  O  O873  1  0.13135616  0.03938814  0.22969941  1
  O  O874  1  0.63188855  0.46412510  0.23040340  1
  O  O875  1  0.84688015  0.54654686  0.23269467  1
  O  O876  1  0.46976059  0.14819201  0.23616838  1
  O  O877  1  0.01896563  0.84886213  0.23576494  1
  O  O878  1  0.96747583  0.35026115  0.23559185  1
  O  O879  1  0.51739347  0.65936703  0.23655531  1
  O  O880  1  0.76900019  0.18854910  0.24368593  1
  O  O881  1  0.71714444  0.79737421  0.24305229  1
  O  O882  1  0.27558992  0.31105712  0.24395348  1
  O  O883  1  0.20506250  0.69654415  0.24502751  1
  O  O884  1  0.92544918  0.01998265  0.25028507  1
  O  O885  1  0.55894374  0.97291052  0.25313732  1
  O  O886  1  0.04775446  0.52641793  0.25266476  1
  O  O887  1  0.42376491  0.48933905  0.25149707  1
  O  O888  1  0.09124676  0.20923879  0.25982003  1
  O  O889  1  0.38600464  0.79522749  0.25956499  1
  O  O890  1  0.58945085  0.29173959  0.25956494  1
  O  O891  1  0.89629526  0.71381954  0.25977397  1
  O  O892  1  0.29263980  0.10362819  0.26302078  1
  O  O893  1  0.18622298  0.90579761  0.26341763  1
  O  O894  1  0.78989242  0.39726205  0.26313652  1
  O  O895  1  0.68143921  0.60412560  0.26476852  1
  O  O896  1  0.18954786  0.40101739  0.27418694  1
  O  O897  1  0.28921992  0.60981014  0.27540666  1
  O  O898  1  0.69091087  0.10029710  0.27455890  1
  O  O899  1  0.79725387  0.90069049  0.27457689  1
  O  O900  1  0.39372945  0.29076042  0.27925331  1
  O  O901  1  0.08555296  0.71907630  0.27979314  1
  O  O902  1  0.89335927  0.21449084  0.27897407  1
  O  O903  1  0.59572819  0.79090712  0.27921897  1
  O  O904  1  0.93075076  0.52527315  0.28578892  1
  O  O905  1  0.54214113  0.48109675  0.28650583  1
  O  O906  1  0.04204881  0.02548993  0.28684687  1
  O  O907  1  0.42723007  0.98175097  0.28617321  1
  O  O908  1  0.70761057  0.30705520  0.29508616  1
  O  O909  1  0.77652882  0.69552537  0.29527275  1
  O  O910  1  0.20947780  0.19607988  0.29526397  1
  O  O911  1  0.25691859  0.82044457  0.29629336  1
  O  O912  1  0.02494800  0.35387884  0.30411800  1
  O  O913  1  0.45296714  0.65547397  0.30536504  1
  O  O914  1  0.52442536  0.15182206  0.30433755  1
  O  O915  1  0.95385087  0.85674225  0.30658502  1
  O  O916  1  0.33837148  0.45370574  0.30754232  1
  O  O917  1  0.13990391  0.55127957  0.30715127  1
  O  O918  1  0.64039893  0.95297936  0.30715823  1
  O  O919  1  0.83693923  0.05680699  0.30748411  1
  O  O920  1  0.83673934  0.44610008  0.31851386  1
  O  O921  1  0.64573624  0.55750725  0.31813294  1
  O  O922  1  0.14147974  0.95612093  0.31930124  1
  O  O923  1  0.33685183  0.05869224  0.31868379  1
  O  O924  1  0.95161392  0.64520660  0.32257269  1
  O  O925  1  0.52313135  0.36162134  0.32275066  1
  O  O926  1  0.45192162  0.85750982  0.32225056  1
  O  O927  1  0.02361386  0.15228717  0.32293219  1
  O  O928  1  0.25960792  0.68922972  0.33055068  1
  O  O929  1  0.20714777  0.31476908  0.33057069  1
  O  O930  1  0.77069945  0.81371497  0.33014467  1
  O  O931  1  0.70269167  0.19463157  0.33087406  1
  O  O932  1  0.43463175  0.53896646  0.33953079  1
  O  O933  1  0.03425120  0.47618393  0.33943740  1
  O  O934  1  0.53272166  0.02972210  0.33936249  1
  O  O935  1  0.92682117  0.98407895  0.34009129  1
  O  O936  1  0.58594113  0.72275521  0.34724207  1
  O  O937  1  0.89450239  0.28891687  0.34772609  1
  O  O938  1  0.08170163  0.78936134  0.34695001  1
  O  O939  1  0.39784295  0.22253385  0.34751763  1
  O  O940  1  0.78521089  0.60998919  0.35064543  1
  O  O941  1  0.67963778  0.40034684  0.35134765  1
  O  O942  1  0.28545539  0.89795038  0.35045697  1
  O  O943  1  0.18657915  0.11197396  0.35157412  1
  O  O944  1  0.68582861  0.90760793  0.36145818  1
  O  O945  1  0.79393737  0.10809973  0.36262151  1
  O  O946  1  0.17844308  0.60276246  0.36261048  1
  O  O947  1  0.29631577  0.40853998  0.36232141  1
  O  O948  1  0.88851283  0.79923339  0.36528581  1
  O  O949  1  0.59266428  0.20773317  0.36653687  1
  O  O950  1  0.37908395  0.71217054  0.36647431  1
  O  O951  1  0.09473193  0.30229182  0.36572203  1
  O  O952  1  0.42617004  0.01805988  0.37398242  1
  O  O953  1  0.05415030  0.98516149  0.37312663  1
  O  O954  1  0.55337249  0.54120137  0.37385417  1
  O  O955  1  0.92451118  0.49009552  0.37390055  1
  O  O956  1  0.21305663  0.81883316  0.38200513  1
  O  O957  1  0.27037638  0.20067837  0.38174407  1
  O  O958  1  0.72061306  0.70395153  0.38275436  1
  O  O959  1  0.76195160  0.31938928  0.38160228  1
  O  O960  1  0.52246741  0.84370096  0.39138573  1
  O  O961  1  0.96447374  0.16004807  0.39228377  1
  O  O962  1  0.02063792  0.66207255  0.39308038  1
  O  O963  1  0.46688120  0.35734295  0.39261816  1
  O  O964  1  0.85142577  0.96332374  0.39356636  1
  O  O965  1  0.63543502  0.03497152  0.39439727  1
  O  O966  1  0.12942684  0.46540949  0.39475338  1
  O  O967  1  0.34617381  0.54736743  0.39446690  1
  O  O968  1  0.34138614  0.93238964  0.40939398  1
  O  O969  1  0.15425959  0.05835482  0.40630390  1
  O  O970  1  0.65049112  0.45883539  0.40639766  1
  O  O971  1  0.83915785  0.57717251  0.40968766  1
  O  O972  1  0.44395764  0.13738437  0.40729006  1
  O  O973  1  0.03902830  0.86840479  0.40927737  1
  O  O974  1  0.93482505  0.37307954  0.40819868  1
  O  O975  1  0.54001119  0.65358212  0.40851106  1
  O  O976  1  0.77190216  0.18193860  0.41251583  1
  O  O977  1  0.73183097  0.82982105  0.41683359  1
  O  O978  1  0.27722059  0.33411889  0.41377105  1
  O  O979  1  0.21226160  0.68683952  0.41427476  1
  O  O980  1  0.83674407  0.06475719  0.18354540  1
  O  O981  1  0.30439683  0.42717679  0.18743448  1
  O  O982  1  0.53466415  0.22872002  0.19615182  1
  O  O983  1  0.05887277  0.27615218  0.19546656  1
  O  O984  1  0.43773593  0.02768025  0.20003982  1
  O  O985  1  0.03875204  0.96597383  0.19702648  1
  O  O986  1  0.52569502  0.53198097  0.19729227  1
  O  O987  1  0.92517616  0.47487539  0.20031921  1
  O  O988  1  0.94702864  0.03861222  0.42626878  1
  O  O989  1  0.54075364  0.97906286  0.42742778  1
  O  O990  1  0.04209118  0.53171513  0.42750434  1
  O  O991  1  0.44922109  0.48438973  0.42682461  1
  O  O992  1  0.07400407  0.23590355  0.42831312  1
  O  O993  1  0.57396814  0.28278818  0.43067580  1
  O  O994  1  0.30261904  0.13061118  0.43940749  1
  O  O995  1  0.80286272  0.37985366  0.44067110  1
