# generated using pymatgen
data_Li182La8Zr5O32
_symmetry_space_group_name_H-M   'P 1'
_cell_length_a   13.06286467
_cell_length_b   13.55988971
_cell_length_c   71.86073538
_cell_angle_alpha   90.18031178
_cell_angle_beta   90.13892569
_cell_angle_gamma   90.22295829
_symmetry_Int_Tables_number   1
_chemical_formula_structural   Li182La8Zr5O32
_chemical_formula_sum   'Li728 La32 Zr20 O128'
_cell_volume   12728.56701729
_cell_formula_units_Z   4
loop_
 _symmetry_equiv_pos_site_id
 _symmetry_equiv_pos_as_xyz
  1  'x, y, z'
loop_
 _atom_site_type_symbol
 _atom_site_label
 _atom_site_symmetry_multiplicity
 _atom_site_fract_x
 _atom_site_fract_y
 _atom_site_fract_z
 _atom_site_occupancy
  Li  Li0  1  0.75989128  0.89125553  0.19500278  1
  Li  Li1  1  0.79641275  0.12084965  0.20041191  1
  Li  Li2  1  0.19649767  0.58961862  0.20543957  1
  Li  Li3  1  0.31853744  0.41591360  0.20018603  1
  Li  Li4  1  0.87509395  0.25258107  0.22154059  1
  Li  Li5  1  0.63996853  0.76977757  0.21642551  1
  Li  Li6  1  0.37551098  0.26275256  0.22062247  1
  Li  Li7  1  0.13556217  0.75769490  0.21854189  1
  Li  Li8  1  0.31595478  0.10642096  0.23488506  1
  Li  Li9  1  0.19068213  0.92204861  0.22788339  1
  Li  Li10  1  0.81124739  0.41737356  0.23527693  1
  Li  Li11  1  0.69234342  0.57988922  0.23070792  1
  Li  Li12  1  0.44028771  0.33584942  0.24976663  1
  Li  Li13  1  0.08151055  0.65185267  0.24373693  1
  Li  Li14  1  0.93389787  0.16600405  0.24971546  1
  Li  Li15  1  0.56865997  0.85434624  0.24277581  1
  Li  Li16  1  0.35064797  0.92450265  0.24692966  1
  Li  Li17  1  0.10701662  0.08160342  0.24936462  1
  Li  Li18  1  0.60547924  0.42702644  0.24990486  1
  Li  Li19  1  0.86069155  0.58769743  0.24827717  1
  Li  Li20  1  0.34643243  0.43750758  0.27840531  1
  Li  Li21  1  0.15945219  0.56291387  0.27588498  1
  Li  Li22  1  0.66421112  0.94988110  0.27623087  1
  Li  Li23  1  0.83886779  0.06229111  0.27759681  1
  Li  Li24  1  0.04831877  0.16174859  0.27866279  1
  Li  Li25  1  0.46708787  0.84706289  0.27363979  1
  Li  Li26  1  0.54966042  0.34766318  0.27930490  1
  Li  Li27  1  0.96817058  0.66896193  0.27446766  1
  Li  Li28  1  0.18036461  0.40624987  0.29731439  1
  Li  Li29  1  0.33592857  0.60930919  0.29303125  1
  Li  Li30  1  0.67956845  0.10165167  0.29811466  1
  Li  Li31  1  0.83987056  0.88628013  0.29217482  1
  Li  Li32  1  0.38096974  0.76264229  0.30824452  1
  Li  Li33  1  0.12875777  0.24661216  0.30890868  1
  Li  Li34  1  0.88402118  0.74986047  0.30924764  1
  Li  Li35  1  0.62994246  0.26494987  0.30811140  1
  Li  Li36  1  0.80825280  0.59131235  0.32293102  1
  Li  Li37  1  0.69682031  0.42437236  0.32020067  1
  Li  Li38  1  0.30351779  0.92038738  0.32409715  1
  Li  Li39  1  0.19603159  0.08381498  0.32158978  1
  Li  Li40  1  0.93885657  0.83319758  0.33909749  1
  Li  Li41  1  0.58695297  0.15840774  0.33062809  1
  Li  Li42  1  0.43734670  0.67338948  0.33710697  1
  Li  Li43  1  0.07175149  0.34924724  0.33382115  1
  Li  Li44  1  0.85487427  0.42426684  0.33906759  1
  Li  Li45  1  0.62104115  0.58942527  0.33813851  1
  Li  Li46  1  0.10610225  0.92013663  0.33914806  1
  Li  Li47  1  0.35122452  0.08851429  0.34061559  1
  Li  Li48  1  0.84801669  0.94034651  0.36783022  1
  Li  Li49  1  0.66898904  0.05647781  0.36560301  1
  Li  Li50  1  0.15574446  0.45320260  0.36524264  1
  Li  Li51  1  0.33562946  0.55844471  0.36902082  1
  Li  Li52  1  0.52857789  0.64460363  0.36584908  1
  Li  Li53  1  0.96950571  0.35672452  0.36308827  1
  Li  Li54  1  0.04430384  0.84848449  0.36874325  1
  Li  Li55  1  0.49872173  0.12854540  0.35618707  1
  Li  Li56  1  0.66691717  0.90496740  0.38673152  1
  Li  Li57  1  0.84289516  0.11056531  0.38351547  1
  Li  Li58  1  0.16737781  0.60842387  0.38756861  1
  Li  Li59  1  0.33928833  0.37734967  0.38232196  1
  Li  Li60  1  0.87606847  0.27051708  0.39564190  1
  Li  Li61  1  0.62587401  0.73762468  0.39734169  1
  Li  Li62  1  0.41127026  0.19728536  0.38312186  1
  Li  Li63  1  0.13113487  0.77098683  0.39867924  1
  Li  Li64  1  0.29328470  0.15808836  0.41190452  1
  Li  Li65  1  0.20469181  0.93976838  0.41442153  1
  Li  Li66  1  0.80460681  0.41778883  0.41432721  1
  Li  Li67  1  0.69556441  0.57577665  0.41307795  1
  Li  Li68  1  0.40952120  0.29978534  0.41254776  1
  Li  Li69  1  0.08561719  0.65817945  0.42055986  1
  Li  Li70  1  0.92716499  0.18357260  0.42004867  1
  Li  Li71  1  0.58440209  0.86524719  0.41901551  1
  Li  Li72  1  0.10747488  0.09017675  0.43118928  1
  Li  Li73  1  0.60038011  0.40376651  0.43163658  1
  Li  Li74  1  0.58619735  0.08400426  0.18509769  1
  Li  Li75  1  0.08864831  0.42397160  0.18474792  1
  Li  Li76  1  0.66204513  0.66648266  0.18725668  1
  Li  Li77  1  0.91956984  0.27945515  0.19181438  1
  Li  Li78  1  0.13326316  0.85488783  0.18919219  1
  Li  Li79  1  0.41165105  0.22201332  0.19131722  1
  Li  Li80  1  0.94226293  0.05722823  0.45213118  1
  Li  Li81  1  0.08851788  0.10462538  0.51528549  1
  Li  Li82  1  0.18292046  0.08184314  0.55873039  1
  Li  Li83  1  1.02908999  1.04892717  0.57418764  1
  Li  Li84  1  0.17477892  0.12906366  0.59007017  1
  Li  Li85  1  0.13924997  0.09802210  0.61371343  1
  Li  Li86  1  0.08565568  -0.03353052  0.61369884  1
  Li  Li87  1  0.12625203  0.10346307  0.63879293  1
  Li  Li88  1  0.00961949  0.08498806  0.65446075  1
  Li  Li89  1  0.92117605  0.28089261  0.46064960  1
  Li  Li90  1  0.13467004  0.27701569  0.50292507  1
  Li  Li91  1  0.15730918  0.22840903  0.54075562  1
  Li  Li92  1  0.10133153  0.20173037  0.57731051  1
  Li  Li93  1  0.11684266  0.35594825  0.59401943  1
  Li  Li94  1  0.12194130  0.22382886  0.60347516  1
  Li  Li95  1  0.06438531  0.19105495  0.62582576  1
  Li  Li96  1  0.10533287  0.30541679  0.63694814  1
  Li  Li97  1  0.04601141  0.20032207  0.64909345  1
  Li  Li98  1  0.09651564  0.35985571  0.47125424  1
  Li  Li99  1  0.10008380  0.53075025  0.49313027  1
  Li  Li100  1  0.08444301  0.41024572  0.52909202  1
  Li  Li101  1  0.03205776  0.30948955  0.55963864  1
  Li  Li102  1  0.17463758  0.46560138  0.59229958  1
  Li  Li103  1  0.10343289  0.44386058  0.61465140  1
  Li  Li104  1  0.04980063  0.31664457  0.61531065  1
  Li  Li105  1  0.17690583  0.42280775  0.63389187  1
  Li  Li106  1  0.08665647  0.42321021  0.65098754  1
  Li  Li107  1  0.91168470  0.50546587  0.47363298  1
  Li  Li108  1  0.26377992  0.63497892  0.50112134  1
  Li  Li109  1  0.14328780  0.60699301  0.53351669  1
  Li  Li110  1  0.06281480  0.48842388  0.56240277  1
  Li  Li111  1  0.15197288  0.67704175  0.59651710  1
  Li  Li112  1  0.09729395  0.55033486  0.60210388  1
  Li  Li113  1  0.00058767  0.53190755  0.61816953  1
  Li  Li114  1  0.14069545  0.65372297  0.63983527  1
  Li  Li115  1  0.08516631  0.54126382  0.64268478  1
  Li  Li116  1  0.95091827  0.66885831  0.49611533  1
  Li  Li117  1  0.11905743  0.76754141  0.51019369  1
  Li  Li118  1  0.08718954  0.78842854  0.55179098  1
  Li  Li119  1  0.04885663  0.68632572  0.56348597  1
  Li  Li120  1  0.14035816  0.78426295  0.58586376  1
  Li  Li121  1  0.11001671  0.77935468  0.61170102  1
  Li  Li122  1  0.07044458  0.64450430  0.61684247  1
  Li  Li123  1  0.14691685  0.77907116  0.63648710  1
  Li  Li124  1  0.05424680  0.73835188  0.65196944  1
  Li  Li125  1  0.98309846  0.86060397  0.47169130  1
  Li  Li126  1  0.11424122  0.94864308  0.49379737  1
  Li  Li127  1  0.10080353  0.94935785  0.53336499  1
  Li  Li128  1  0.04711676  0.90082589  0.58413612  1
  Li  Li129  1  0.12256345  1.01411099  0.59295194  1
  Li  Li130  1  0.16691090  0.88675938  0.59789153  1
  Li  Li131  1  0.05877496  0.87624263  0.62865690  1
  Li  Li132  1  0.15772762  0.97594407  0.63380627  1
  Li  Li133  1  0.08712508  0.87356857  0.65194640  1
  Li  Li134  1  0.00380729  0.89251333  0.43253205  1
  Li  Li135  1  0.25040094  0.08454176  0.49210588  1
  Li  Li136  1  0.27364405  0.06205377  0.52972959  1
  Li  Li137  1  0.26501070  0.02032637  0.58690405  1
  Li  Li138  1  0.28550317  0.17056032  0.58154820  1
  Li  Li139  1  0.27150110  0.10270461  0.60436294  1
  Li  Li140  1  0.24933465  0.08162350  0.62695039  1
  Li  Li141  1  0.31403537  0.19620006  0.63785126  1
  Li  Li142  1  0.23416069  0.05241391  0.64965020  1
  Li  Li143  1  0.10169745  0.13711728  0.47071105  1
  Li  Li144  1  0.27718083  0.25565458  0.47701667  1
  Li  Li145  1  0.31528279  0.23989110  0.51555716  1
  Li  Li146  1  0.20614663  0.26228154  0.58369881  1
  Li  Li147  1  0.24637230  0.36252478  0.59588746  1
  Li  Li148  1  0.26598523  0.23732266  0.60675171  1
  Li  Li149  1  0.19194418  0.20721598  0.62594885  1
  Li  Li150  1  0.24289876  0.31608553  0.63942857  1
  Li  Li151  1  0.19015630  0.21187879  0.64968541  1
  Li  Li152  1  0.21080597  0.27668708  0.44166554  1
  Li  Li153  1  0.25984272  0.43047884  0.50418902  1
  Li  Li154  1  0.23492889  0.53687942  0.56282995  1
  Li  Li155  1  0.20808042  0.36109740  0.56943053  1
  Li  Li156  1  0.30510200  0.47422053  0.59096180  1
  Li  Li157  1  0.24273477  0.44931956  0.61383562  1
  Li  Li158  1  0.18069488  0.32888943  0.61641388  1
  Li  Li159  1  0.31872733  0.42373918  0.63494135  1
  Li  Li160  1  0.23009610  0.42883189  0.65538886  1
  Li  Li161  1  1.00063087  0.39377659  0.43317220  1
  Li  Li162  1  0.34063847  0.63358202  0.46721179  1
  Li  Li163  1  0.35698867  0.57643888  0.53423556  1
  Li  Li164  1  0.17021269  0.58890474  0.58057000  1
  Li  Li165  1  0.28800866  0.65992493  0.58927635  1
  Li  Li166  1  0.23747495  0.57559081  0.60409447  1
  Li  Li167  1  0.17420320  0.55106090  0.62474891  1
  Li  Li168  1  0.28218177  0.64747681  0.63545958  1
  Li  Li169  1  0.20605829  0.55919368  0.64983385  1
  Li  Li170  1  0.08586943  0.54506360  0.45252664  1
  Li  Li171  1  0.26621818  0.81169802  0.48120114  1
  Li  Li172  1  0.29005881  0.76611817  0.52972621  1
  Li  Li173  1  0.23239113  0.70987575  0.56030980  1
  Li  Li174  1  0.29738401  0.82186785  0.58110638  1
  Li  Li175  1  0.24110859  0.77671506  0.60504763  1
  Li  Li176  1  0.19520577  0.68281121  0.61922665  1
  Li  Li177  1  0.28253232  0.77889062  0.62778516  1
  Li  Li178  1  0.24426449  0.73379575  0.65084166  1
  Li  Li179  1  0.11031239  0.70913996  0.47141070  1
  Li  Li180  1  0.30716472  0.91860060  0.51117650  1
  Li  Li181  1  0.23695986  0.90484873  0.55463910  1
  Li  Li182  1  0.14787854  0.92037498  0.57091640  1
  Li  Li183  1  0.34439032  0.93286559  0.58206141  1
  Li  Li184  1  0.21767336  0.98978474  0.61107003  1
  Li  Li185  1  0.19268046  0.87487919  0.62115321  1
  Li  Li186  1  0.29004965  0.95947326  0.63210027  1
  Li  Li187  1  0.22848461  0.86842068  0.64443929  1
  Li  Li188  1  0.17990283  0.92943400  0.45803700  1
  Li  Li189  1  0.43421113  0.11000099  0.50073341  1
  Li  Li190  1  0.45669188  0.12349244  0.53511410  1
  Li  Li191  1  0.36303891  0.05399103  0.56108908  1
  Li  Li192  1  0.46888717  0.16757969  0.57945186  1
  Li  Li193  1  0.41053452  0.11786602  0.59700755  1
  Li  Li194  1  0.35550800  0.01717925  0.61258032  1
  Li  Li195  1  0.45188762  0.15353029  0.63485572  1
  Li  Li196  1  0.36342025  0.06392491  0.63782440  1
  Li  Li197  1  0.28750181  0.09283448  0.45445318  1
  Li  Li198  1  0.44213119  0.33172309  0.48806667  1
  Li  Li199  1  0.44362799  0.37355124  0.52498902  1
  Li  Li200  1  0.33360116  0.23811037  0.55343921  1
  Li  Li201  1  0.37750571  0.31749650  0.58554265  1
  Li  Li202  1  0.45114845  0.28757963  0.60316102  1
  Li  Li203  1  0.36450705  0.15259384  0.61758077  1
  Li  Li204  1  0.45331018  0.32982747  0.63485299  1
  Li  Li205  1  0.40966523  0.29736871  0.65457071  1
  Li  Li206  1  0.42126252  0.33852653  0.44746275  1
  Li  Li207  1  0.43889033  0.53004180  0.50021364  1
  Li  Li208  1  0.40224568  0.41771677  0.55869730  1
  Li  Li209  1  0.25758043  0.40237087  0.53773830  1
  Li  Li210  1  0.45129117  0.47868291  0.59384820  1
  Li  Li211  1  0.38194145  0.45421632  0.61280989  1
  Li  Li212  1  0.31747831  0.33542310  0.61779943  1
  Li  Li213  1  0.43406999  0.50224512  0.63538955  1
  Li  Li214  1  0.37381174  0.44240102  0.65612819  1
  Li  Li215  1  0.28406086  0.45701850  0.46906788  1
  Li  Li216  1  0.50163169  0.73076225  0.53231912  1
  Li  Li217  1  0.53243344  0.56680935  0.55019839  1
  Li  Li218  1  0.40171881  0.57126311  0.57250403  1
  Li  Li219  1  0.40417077  0.70306582  0.59212333  1
  Li  Li220  1  0.38005236  0.57785839  0.60146648  1
  Li  Li221  1  0.31360874  0.54680091  0.62278707  1
  Li  Li222  1  0.41028036  0.62998778  0.63142340  1
  Li  Li223  1  0.33184162  0.54678729  0.64625527  1
  Li  Li224  1  0.24910026  0.73407752  0.43846567  1
  Li  Li225  1  0.43052289  0.76481056  0.49965948  1
  Li  Li226  1  0.56240232  0.78004487  0.57035909  1
  Li  Li227  1  0.40484720  0.72342018  0.55977513  1
  Li  Li228  1  0.50819818  0.79257887  0.59920075  1
  Li  Li229  1  0.38109219  0.78572440  0.60968196  1
  Li  Li230  1  0.32261772  0.67379779  0.61312690  1
  Li  Li231  1  0.46007773  0.76216111  0.63194066  1
  Li  Li232  1  0.37110891  0.73748542  0.64725141  1
  Li  Li233  1  0.44915311  0.79593543  0.45921547  1
  Li  Li234  1  0.50987091  0.95729815  0.51805545  1
  Li  Li235  1  0.42165817  0.89123602  0.54961765  1
  Li  Li236  1  0.41897305  0.83973344  0.58604688  1
  Li  Li237  1  0.50786307  0.99529837  0.58242372  1
  Li  Li238  1  0.45235457  0.90848965  0.60930033  1
  Li  Li239  1  0.31292180  0.88853681  0.61219006  1
  Li  Li240  1  0.43024979  0.94581757  0.63056812  1
  Li  Li241  1  0.37245291  0.85864359  0.64242609  1
  Li  Li242  1  0.39439400  -0.03331179  0.47628402  1
  Li  Li243  1  0.61555819  0.08150125  0.48736588  1
  Li  Li244  1  0.65593475  0.12617439  0.53914626  1
  Li  Li245  1  0.54597557  1.02365494  0.56056403  1
  Li  Li246  1  0.64320534  0.13287858  0.58006088  1
  Li  Li247  1  0.60617856  0.10392643  0.60107091  1
  Li  Li248  1  0.53214083  0.04266938  0.61485246  1
  Li  Li249  1  0.63611617  0.12749967  0.63518644  1
  Li  Li250  1  0.56292577  0.04346744  0.64449107  1
  Li  Li251  1  0.45317296  0.16022874  0.46758526  1
  Li  Li252  1  0.61455467  0.26749365  0.46753970  1
  Li  Li253  1  0.57858473  0.23478821  0.51130353  1
  Li  Li254  1  0.53976318  0.25433604  0.55333313  1
  Li  Li255  1  0.71158898  0.30070802  0.58499420  1
  Li  Li256  1  0.57451333  0.27279570  0.60230432  1
  Li  Li257  1  0.50978493  0.21363070  0.61810257  1
  Li  Li258  1  0.63499530  0.32684475  0.63025568  1
  Li  Li259  1  0.59957140  0.27161025  0.64914923  1
  Li  Li260  1  0.56067095  0.46899078  0.46972881  1
  Li  Li261  1  0.62484301  0.41608296  0.50033292  1
  Li  Li262  1  0.60538028  0.40995912  0.53938787  1
  Li  Li263  1  0.55115485  0.37851770  0.57718383  1
  Li  Li264  1  0.62107275  0.47980910  0.57563057  1
  Li  Li265  1  0.58831995  0.45319368  0.60724105  1
  Li  Li266  1  0.49863313  0.41168046  0.62036025  1
  Li  Li267  1  0.62997276  0.50806494  0.63664149  1
  Li  Li268  1  0.56565045  0.43750348  0.64913868  1
  Li  Li269  1  0.45320152  0.52941978  0.44191529  1
  Li  Li270  1  0.54216431  0.64876156  0.47950249  1
  Li  Li271  1  0.60932134  0.57881647  0.51791090  1
  Li  Li272  1  0.51189733  0.58959512  0.59374150  1
  Li  Li273  1  0.58639740  0.68181265  0.60343109  1
  Li  Li274  1  0.62515336  0.56873240  0.60998424  1
  Li  Li275  1  0.48625827  0.54841907  0.61568287  1
  Li  Li276  1  0.55057146  0.63901538  0.62784680  1
  Li  Li277  1  0.50894960  0.61941206  0.64966592  1
  Li  Li278  1  0.54975063  0.68306644  0.43308969  1
  Li  Li279  1  0.64164983  0.77085659  0.51001105  1
  Li  Li280  1  0.68170283  0.69501940  0.55173053  1
  Li  Li281  1  0.54917314  0.66824514  0.57776730  1
  Li  Li282  1  0.64435660  0.80731816  0.59860466  1
  Li  Li283  1  0.56727772  0.76800474  0.61958315  1
  Li  Li284  1  0.46421435  0.67748246  0.61196983  1
  Li  Li285  1  0.66434210  0.79666298  0.63436222  1
  Li  Li286  1  0.61613680  0.68413772  0.64683118  1
  Li  Li287  1  0.57764753  0.98386009  0.45217251  1
  Li  Li288  1  0.57567704  0.89447361  0.48592475  1
  Li  Li289  1  0.62358169  0.88236342  0.54220262  1
  Li  Li290  1  0.56517098  0.89277950  0.57650512  1
  Li  Li291  1  0.71971614  0.92415012  0.59585928  1
  Li  Li292  1  0.58592976  0.91095970  0.60444819  1
  Li  Li293  1  0.56268770  0.88910144  0.62670911  1
  Li  Li294  1  0.67143329  0.97358542  0.63396460  1
  Li  Li295  1  0.55241993  0.85900227  0.64854701  1
  Li  Li296  1  0.39049144  0.94266894  0.43330697  1
  Li  Li297  1  0.77542490  0.14768844  0.50848531  1
  Li  Li298  1  0.77074725  0.00350926  0.55007199  1
  Li  Li299  1  0.68760871  1.01659154  0.58187862  1
  Li  Li300  1  0.91297426  0.10338401  0.60084847  1
  Li  Li301  1  0.78369946  0.11030525  0.60421897  1
  Li  Li302  1  0.72527797  0.01984980  0.61531176  1
  Li  Li303  1  0.81571387  0.13025419  0.63889109  1
  Li  Li304  1  0.77491296  0.02655036  0.64930404  1
  Li  Li305  1  0.50591623  0.13029804  0.43147610  1
  Li  Li306  1  0.75595264  0.31660208  0.52466551  1
  Li  Li307  1  0.83528827  0.19985378  0.54540914  1
  Li  Li308  1  0.80372387  0.14146785  0.57345360  1
  Li  Li309  1  0.93640144  0.19873774  0.58631872  1
  Li  Li310  1  0.75294724  0.22782673  0.60161112  1
  Li  Li311  1  0.71584894  0.19039377  0.62235441  1
  Li  Li312  1  0.84744599  0.31510427  0.63275916  1
  Li  Li313  1  0.76976914  0.26731253  0.64814915  1
  Li  Li314  1  0.75231319  0.24196470  0.43662494  1
  Li  Li315  1  0.79902174  0.48076795  0.51200788  1
  Li  Li316  1  0.73843205  0.52119383  0.54800533  1
  Li  Li317  1  0.71974121  0.32256076  0.56197137  1
  Li  Li318  1  0.81293275  0.45972656  0.57988235  1
  Li  Li319  1  0.75861999  0.44738744  0.60016794  1
  Li  Li320  1  0.72114579  0.37689828  0.61709908  1
  Li  Li321  1  0.83345524  0.46859122  0.63247742  1
  Li  Li322  1  0.75708423  0.39763843  0.64545794  1
  Li  Li323  1  0.75810277  0.41532998  0.45891047  1
  Li  Li324  1  0.74175500  0.60390966  0.48728750  1
  Li  Li325  1  0.79535391  0.66274520  0.52309351  1
  Li  Li326  1  0.68786745  0.57828966  0.58185401  1
  Li  Li327  1  0.84070914  0.71618520  0.59893033  1
  Li  Li328  1  0.75344059  0.62534064  0.60401024  1
  Li  Li329  1  0.73986591  0.56063845  0.62471258  1
  Li  Li330  1  0.84636402  0.60270067  0.64088037  1
  Li  Li331  1  0.72990869  0.57801783  0.65040899  1
  Li  Li332  1  0.69932897  0.59313642  0.45304729  1
  Li  Li333  1  0.80936691  0.80001766  0.49297950  1
  Li  Li334  1  0.80882278  0.83434687  0.53717615  1
  Li  Li335  1  0.70385350  0.71085642  0.58937776  1
  Li  Li336  1  0.79644794  0.81591407  0.58847958  1
  Li  Li337  1  0.74374064  0.76396500  0.61082775  1
  Li  Li338  1  0.67521287  0.67703936  0.62346290  1
  Li  Li339  1  0.79610703  0.81018586  0.63065525  1
  Li  Li340  1  0.75518692  0.70625658  0.64424732  1
  Li  Li341  1  0.66266878  0.76920419  0.46611933  1
  Li  Li342  1  0.72897769  0.96096884  0.51178692  1
  Li  Li343  1  0.81614895  0.92711954  0.57913137  1
  Li  Li344  1  0.73294344  0.85140421  0.56921762  1
  Li  Li345  1  0.84559459  0.98605729  0.60259952  1
  Li  Li346  1  0.83151954  0.86905322  0.60914405  1
  Li  Li347  1  0.69994865  0.88371683  0.61810248  1
  Li  Li348  1  0.80902485  0.94825331  0.62740564  1
  Li  Li349  1  0.74430792  0.89380678  0.64577066  1
  Li  Li350  1  0.76961254  0.93198950  0.46726221  1
  Li  Li351  1  0.95184847  0.19079572  0.49130530  1
  Li  Li352  1  0.91186903  0.04290531  0.52677832  1
  Li  Li353  1  0.86453670  1.03898684  0.57824350  1
  Li  Li354  1  1.04429817  0.11656501  0.59582966  1
  Li  Li355  1  1.00363708  0.07631203  0.61730020  1
  Li  Li356  1  0.86219227  0.06241498  0.62112617  1
  Li  Li357  1  0.94390816  0.13959865  0.63554138  1
  Li  Li358  1  0.90041156  0.01606484  0.64217872  1
  Li  Li359  1  0.77389290  0.13299840  0.46889201  1
  Li  Li360  1  0.95670876  0.38243867  0.49995401  1
  Li  Li361  1  0.96531849  0.24789624  0.52526900  1
  Li  Li362  1  0.99153741  0.11487230  0.55597614  1
  Li  Li363  1  1.01151374  0.29120646  0.59318845  1
  Li  Li364  1  0.98012258  0.20366742  0.60869710  1
  Li  Li365  1  0.86280048  0.20006922  0.61840634  1
  Li  Li366  1  0.96831197  0.27088538  0.63151853  1
  Li  Li367  1  0.90912598  0.24192290  0.65213788  1
  Li  Li368  1  0.77996246  0.31067390  0.48805635  1
  Li  Li369  1  0.96745968  0.54438120  0.52287421  1
  Li  Li370  1  0.89210205  0.39781833  0.54582221  1
  Li  Li371  1  0.88504713  0.29874564  0.57774810  1
  Li  Li372  1  0.99636594  0.45589887  0.58127839  1
  Li  Li373  1  0.94409889  0.42334808  0.60097047  1
  Li  Li374  1  0.88785749  0.33304079  0.61134035  1
  Li  Li375  1  1.00398657  0.42341137  0.62925235  1
  Li  Li376  1  0.94046394  0.42939397  0.64895402  1
  Li  Li377  1  0.89483933  0.57074108  0.43326915  1
  Li  Li378  1  0.95955963  0.71704811  0.53375720  1
  Li  Li379  1  0.90795111  0.56816661  0.55539993  1
  Li  Li380  1  0.79582162  0.63583153  0.57835582  1
  Li  Li381  1  0.99086545  0.64583008  0.58269283  1
  Li  Li382  1  0.92423121  0.58514759  0.59810014  1
  Li  Li383  1  0.86125184  0.55417311  0.61681371  1
  Li  Li384  1  0.95006528  0.65372825  0.62465710  1
  Li  Li385  1  0.96925696  0.58213093  0.64666525  1
  Li  Li386  1  0.88320116  0.70470309  0.46078303  1
  Li  Li387  1  0.95238067  0.87000446  0.51416296  1
  Li  Li388  1  0.92501774  0.81679508  0.56532969  1
  Li  Li389  1  0.85342818  0.71929793  0.56557010  1
  Li  Li390  1  0.98046259  0.75238598  0.59516486  1
  Li  Li391  1  0.90152240  0.77451952  0.61697101  1
  Li  Li392  1  0.81157941  0.67942051  0.62313866  1
  Li  Li393  1  1.01486196  0.75997087  0.62706415  1
  Li  Li394  1  0.89518714  0.73321095  0.64112843  1
  Li  Li395  1  0.75431268  0.79128373  0.43521667  1
  Li  Li396  1  0.90717751  0.01170881  0.49003416  1
  Li  Li397  1  0.95207499  0.92304373  0.55543152  1
  Li  Li398  1  0.92208878  0.89026299  0.58976381  1
  Li  Li399  1  0.98779767  0.98873747  0.59769294  1
  Li  Li400  1  1.00048070  0.85998712  0.60767542  1
  Li  Li401  1  0.94425395  0.95280595  0.62044794  1
  Li  Li402  1  1.02987133  1.00529438  0.63604530  1
  Li  Li403  1  0.90256786  0.87780831  0.63840604  1
  Li  Li404  1  -0.01609925  -0.04991916  0.65588544  1
  Li  Li405  1  0.07819503  0.09689554  0.68273469  1
  Li  Li406  1  0.03527752  0.00688822  0.69609585  1
  Li  Li407  1  -0.07327472  -0.05391294  0.69984263  1
  Li  Li408  1  0.06008553  0.10182276  0.73682206  1
  Li  Li409  1  -0.02771002  0.01926160  0.76410509  1
  Li  Li410  1  -0.14147439  -0.07145378  0.80019776  1
  Li  Li411  1  0.11191297  0.22463728  0.89183971  1
  Li  Li412  1  0.15891299  0.02167975  0.94539591  1
  Li  Li413  1  -0.01762863  0.18621790  0.67138295  1
  Li  Li414  1  0.08678828  0.27755992  0.67704840  1
  Li  Li415  1  -0.00521237  0.24485739  0.69554009  1
  Li  Li416  1  -0.03160578  0.09841015  0.70531170  1
  Li  Li417  1  -0.02298384  0.21590275  0.76441856  1
  Li  Li418  1  -0.06745444  0.12314479  0.79520466  1
  Li  Li419  1  -0.02913836  0.18849448  0.86506831  1
  Li  Li420  1  0.19020540  0.39389230  0.87597584  1
  Li  Li421  1  0.03579739  0.15437419  0.92505132  1
  Li  Li422  1  0.01942353  0.31799050  0.65458818  1
  Li  Li423  1  0.05543161  0.39595674  0.67346653  1
  Li  Li424  1  -0.00893805  0.37579948  0.69358378  1
  Li  Li425  1  -0.12907671  0.31478719  0.71016861  1
  Li  Li426  1  -0.00667195  0.33650154  0.73567037  1
  Li  Li427  1  -0.02207338  0.32226679  0.79387829  1
  Li  Li428  1  -0.00615097  0.25155743  0.82806678  1
  Li  Li429  1  0.05172045  0.55535516  0.88376044  1
  Li  Li430  1  0.10700752  0.40193662  0.91596468  1
  Li  Li431  1  0.02249444  0.51460988  0.66314284  1
  Li  Li432  1  0.05893100  0.61017751  0.67939426  1
  Li  Li433  1  0.02869844  0.49453207  0.68729340  1
  Li  Li434  1  -0.09283487  0.46129126  0.69961604  1
  Li  Li435  1  0.00773605  0.56728472  0.74235073  1
  Li  Li436  1  -0.01840614  0.43880050  0.76584039  1
  Li  Li437  1  0.04092283  0.52567474  0.80327548  1
  Li  Li438  1  0.10796851  0.70998531  0.85936739  1
  Li  Li439  1  0.04884129  0.55946630  0.94914678  1
  Li  Li440  1  -0.03276448  0.69569365  0.66703834  1
  Li  Li441  1  0.04191955  0.80661390  0.67407440  1
  Li  Li442  1  -0.00133634  0.71764516  0.69177219  1
  Li  Li443  1  -0.04522112  0.58859884  0.69548515  1
  Li  Li444  1  0.09508297  0.76517241  0.74549898  1
  Li  Li445  1  -0.01605779  0.64422134  0.77407350  1
  Li  Li446  1  0.01378028  0.76537107  0.80504414  1
  Li  Li447  1  0.01194557  0.86667895  0.87595813  1
  Li  Li448  1  -0.01617267  0.73307882  0.91291791  1
  Li  Li449  1  -0.04496514  0.82324701  0.65716223  1
  Li  Li450  1  0.08338814  0.93868254  0.67464474  1
  Li  Li451  1  0.05789310  0.88736271  0.69598896  1
  Li  Li452  1  -0.05683348  0.80553258  0.70397863  1
  Li  Li453  1  0.00607649  0.91976506  0.73024730  1
  Li  Li454  1  -0.00989670  0.83892322  0.77033685  1
  Li  Li455  1  -0.11645245  0.81133865  0.83481194  1
  Li  Li456  1  0.12637174  1.04022070  0.86864647  1
  Li  Li457  1  0.12939239  0.78636416  0.94051365  1
  Li  Li458  1  0.10692594  0.00189473  0.65530099  1
  Li  Li459  1  0.27722706  0.07348700  0.68249621  1
  Li  Li460  1  0.20612799  0.00563650  0.69642695  1
  Li  Li461  1  0.17552035  -0.02138430  0.71843627  1
  Li  Li462  1  0.25916638  0.13591294  0.73974411  1
  Li  Li463  1  0.13630929  0.10986720  0.77277395  1
  Li  Li464  1  0.07079257  0.06740342  0.82665801  1
  Li  Li465  1  0.35946645  0.09509174  0.86451993  1
  Li  Li466  1  0.09364064  -0.05926299  0.90910177  1
  Li  Li467  1  0.14091443  0.12706044  0.66384966  1
  Li  Li468  1  0.22815094  0.24280289  0.67589477  1
  Li  Li469  1  0.15966049  0.22751627  0.69413315  1
  Li  Li470  1  0.15102715  0.14855318  0.71103171  1
  Li  Li471  1  0.14329891  0.26247895  0.75123032  1
  Li  Li472  1  0.14931112  0.20443094  0.80364694  1
  Li  Li473  1  0.17173181  0.21357263  0.85002154  1
  Li  Li474  1  0.34741429  0.25737850  0.88757689  1
  Li  Li475  1  0.24123632  0.24151797  0.92748214  1
  Li  Li476  1  0.15823077  0.33038452  0.66021231  1
  Li  Li477  1  0.23866872  0.38917227  0.69116670  1
  Li  Li478  1  0.12710499  0.41348107  0.70001111  1
  Li  Li479  1  0.03781465  0.27372127  0.71756945  1
  Li  Li480  1  0.14977203  0.44502383  0.74350055  1
  Li  Li481  1  0.17493968  0.37124800  0.78120769  1
  Li  Li482  1  0.13446143  0.38012352  0.82005851  1
  Li  Li483  1  0.31844155  0.43454274  0.90586875  1
  Li  Li484  1  0.27841906  0.45213471  0.94628022  1
  Li  Li485  1  0.14320019  0.50258315  0.67094512  1
  Li  Li486  1  0.24012213  0.56849097  0.68927182  1
  Li  Li487  1  0.15640040  0.59516767  0.70586665  1
  Li  Li488  1  0.03536681  0.46110108  0.71335867  1
  Li  Li489  1  0.19958086  0.62675456  0.74012733  1
  Li  Li490  1  0.17270845  0.56249127  0.77575784  1
  Li  Li491  1  0.17497661  0.52646309  0.84585713  1
  Li  Li492  1  0.27051339  0.60745746  0.87837531  1
  Li  Li493  1  0.19438787  0.60317537  0.91873799  1
  Li  Li494  1  0.14551607  0.64199711  0.66303266  1
  Li  Li495  1  0.25270384  0.73588806  0.68558678  1
  Li  Li496  1  0.13215176  0.71097919  0.68190568  1
  Li  Li497  1  0.04884392  0.64305440  0.71403477  1
  Li  Li498  1  0.26653044  0.81907040  0.74048998  1
  Li  Li499  1  0.17239044  0.75289003  0.77753062  1
  Li  Li500  1  0.17378809  0.66420785  0.81786514  1
  Li  Li501  1  0.27993470  0.77569194  0.84554340  1
  Li  Li502  1  0.15549344  0.75846800  0.89622913  1
  Li  Li503  1  0.16688235  0.80048945  0.66344729  1
  Li  Li504  1  0.20251836  0.93573769  0.66548573  1
  Li  Li505  1  0.16162335  0.84906484  0.68525248  1
  Li  Li506  1  0.14179119  0.78983719  0.71314027  1
  Li  Li507  1  0.16911313  0.94995031  0.75642455  1
  Li  Li508  1  0.07775475  0.95342366  0.79551689  1
  Li  Li509  1  0.08685010  0.86733877  0.83627074  1
  Li  Li510  1  0.25796233  0.89299776  0.87585877  1
  Li  Li511  1  0.29490978  0.91035368  0.92164784  1
  Li  Li512  1  0.31737317  -0.03356957  0.65527057  1
  Li  Li513  1  0.52718017  0.12733024  0.67882923  1
  Li  Li514  1  0.45337130  0.06353118  0.69222577  1
  Li  Li515  1  0.35931916  0.03999477  0.71560941  1
  Li  Li516  1  0.35834200  0.03370645  0.76769099  1
  Li  Li517  1  0.25474956  0.03398185  0.79851950  1
  Li  Li518  1  0.25239666  -0.01268117  0.83676155  1
  Li  Li519  1  0.45387520  0.11609890  0.91232927  1
  Li  Li520  1  0.24974066  0.07664655  0.90264639  1
  Li  Li521  1  0.34974774  0.12505251  0.66675178  1
  Li  Li522  1  0.49963944  0.31149601  0.68349660  1
  Li  Li523  1  0.40335017  0.24090646  0.68776580  1
  Li  Li524  1  0.32897944  0.19903580  0.70447488  1
  Li  Li525  1  0.44848562  0.15427324  0.74408493  1
  Li  Li526  1  0.30167805  0.20039310  0.77664517  1
  Li  Li527  1  0.33366418  0.15920376  0.82458197  1
  Li  Li528  1  0.49247564  0.27636555  0.85280292  1
  Li  Li529  1  0.36825436  0.08218435  0.94700167  1
  Li  Li530  1  0.30004507  0.31408228  0.66382614  1
  Li  Li531  1  0.36018122  0.41881448  0.68791605  1
  Li  Li532  1  0.39998191  0.37289054  0.70842412  1
  Li  Li533  1  0.22343595  0.31452543  0.72216841  1
  Li  Li534  1  0.32304036  0.34177753  0.75491650  1
  Li  Li535  1  0.34399542  0.31207444  0.80391888  1
  Li  Li536  1  0.30146475  0.35283910  0.84111468  1
  Li  Li537  1  0.52531589  0.37919860  0.89936481  1
  Li  Li538  1  0.44767516  0.29206732  0.93420774  1
  Li  Li539  1  0.26999861  0.52130000  0.66934985  1
  Li  Li540  1  0.42292798  0.58770919  0.68921139  1
  Li  Li541  1  0.37725463  0.54899149  0.70927622  1
  Li  Li542  1  0.28295464  0.49079311  0.72029184  1
  Li  Li543  1  0.33063207  0.52052460  0.75574825  1
  Li  Li544  1  0.28275766  0.50372253  0.80892027  1
  Li  Li545  1  0.40487919  0.44774584  0.86657777  1
  Li  Li546  1  0.47651590  0.59115960  0.88697372  1
  Li  Li547  1  0.42612105  0.57161426  0.92459408  1
  Li  Li548  1  0.34122726  0.65609767  0.66324133  1
  Li  Li549  1  0.43293887  0.75997972  0.68058594  1
  Li  Li550  1  0.40613373  0.73494740  0.70224152  1
  Li  Li551  1  0.31354816  0.69775445  0.71637035  1
  Li  Li552  1  0.38996755  0.68733483  0.75269535  1
  Li  Li553  1  0.34785701  0.66251634  0.78973007  1
  Li  Li554  1  0.36262045  0.59733389  0.84060662  1
  Li  Li555  1  0.45879769  0.76365532  0.86893166  1
  Li  Li556  1  0.36188138  0.73722661  0.94470606  1
  Li  Li557  1  0.30844320  0.83780607  0.66254560  1
  Li  Li558  1  0.43098659  0.92796950  0.67273855  1
  Li  Li559  1  0.33653553  0.90217329  0.68616215  1
  Li  Li560  1  0.30409693  0.87092809  0.70705265  1
  Li  Li561  1  0.36101512  0.97053176  0.73473875  1
  Li  Li562  1  0.33993277  0.85118462  0.77383643  1
  Li  Li563  1  0.24037254  0.83607129  0.80901992  1
  Li  Li564  1  0.44532841  0.94892565  0.89074080  1
  Li  Li565  1  0.35575706  0.74877157  0.90304593  1
  Li  Li566  1  0.47661790  0.00927769  0.65914828  1
  Li  Li567  1  0.66056564  0.10451233  0.67010515  1
  Li  Li568  1  0.57822915  0.04720623  0.69348633  1
  Li  Li569  1  0.48399257  -0.09611533  0.70420964  1
  Li  Li570  1  0.54079229  0.02663732  0.72687853  1
  Li  Li571  1  0.40810992  -0.06892434  0.80674878  1
  Li  Li572  1  0.43345083  -0.08210379  0.84580030  1
  Li  Li573  1  0.55961452  0.16232092  0.88065895  1
  Li  Li574  1  0.59890420  0.09805252  0.94587717  1
  Li  Li575  1  0.53111634  0.19218451  0.66003409  1
  Li  Li576  1  0.65377904  0.26230344  0.67670958  1
  Li  Li577  1  0.63021184  0.22448568  0.69790583  1
  Li  Li578  1  0.53579948  0.18700382  0.71122170  1
  Li  Li579  1  0.59553604  0.08934767  0.76335920  1
  Li  Li580  1  0.48604997  0.09047528  0.79417171  1
  Li  Li581  1  0.51183762  0.07755497  0.83284398  1
  Li  Li582  1  0.71240210  0.30882922  0.87869356  1
  Li  Li583  1  0.63710541  0.23321061  0.91643507  1
  Li  Li584  1  0.52932608  0.40115132  0.66935822  1
  Li  Li585  1  0.63730351  0.42288553  0.69065856  1
  Li  Li586  1  0.58256257  0.34545600  0.71733024  1
  Li  Li587  1  0.41520678  0.30025576  0.72686468  1
  Li  Li588  1  0.51750629  0.39243524  0.75123860  1
  Li  Li589  1  0.48771556  0.25979134  0.77492296  1
  Li  Li590  1  0.54569643  0.25576585  0.81278927  1
  Li  Li591  1  0.62401496  0.47983011  0.86861537  1
  Li  Li592  1  0.71435131  0.29902917  0.95151081  1
  Li  Li593  1  0.44924101  0.53518499  0.66114895  1
  Li  Li594  1  0.62988273  0.56197974  0.67080975  1
  Li  Li595  1  0.54226254  0.48001778  0.69972940  1
  Li  Li596  1  0.47470383  0.47238225  0.73446393  1
  Li  Li597  1  0.53468529  0.56929437  0.76303436  1
  Li  Li598  1  0.41857226  0.44767258  0.78350156  1
  Li  Li599  1  0.47424284  0.43950840  0.82584956  1
  Li  Li600  1  0.62978500  0.55054802  0.91210038  1
  Li  Li601  1  0.56512359  0.45553079  0.94391508  1
  Li  Li602  1  0.53351817  0.61856044  0.68030610  1
  Li  Li603  1  0.63515550  0.75390625  0.68222949  1
  Li  Li604  1  0.57657147  0.69474260  0.70843633  1
  Li  Li605  1  0.51293524  0.63463120  0.72458385  1
  Li  Li606  1  0.59977615  0.73588332  0.75483412  1
  Li  Li607  1  0.52100439  0.59509862  0.80474588  1
  Li  Li608  1  0.56391412  0.61103034  0.84370493  1
  Li  Li609  1  0.63745520  0.86657227  0.89451314  1
  Li  Li610  1  0.54491040  0.73756562  0.91347849  1
  Li  Li611  1  0.50618917  0.78139088  0.66317939  1
  Li  Li612  1  0.60037128  0.92947314  0.67397644  1
  Li  Li613  1  0.56294073  0.82536736  0.69541486  1
  Li  Li614  1  0.45017342  0.80649186  0.73140775  1
  Li  Li615  1  0.51225760  0.91801394  0.75861475  1
  Li  Li616  1  0.52900466  0.77706506  0.78648145  1
  Li  Li617  1  0.44975313  0.75604557  0.82237637  1
  Li  Li618  1  0.59974286  0.98824047  0.86405887  1
  Li  Li619  1  0.50302664  0.91478586  0.93036323  1
  Li  Li620  1  0.66622902  -0.02767304  0.65693905  1
  Li  Li621  1  0.81645928  0.12019609  0.67913919  1
  Li  Li622  1  0.73350502  0.01268111  0.67581973  1
  Li  Li623  1  0.65557170  -0.03802551  0.70187530  1
  Li  Li624  1  0.70871372  -0.01018762  0.73762139  1
  Li  Li625  1  0.70034703  0.09324763  0.80137086  1
  Li  Li626  1  0.59557906  -0.07351132  0.81156901  1
  Li  Li627  1  0.77719238  0.09783307  0.87105626  1
  Li  Li628  1  0.68688990  0.04476872  0.90633777  1
  Li  Li629  1  0.74445018  0.15757708  0.65706754  1
  Li  Li630  1  0.81284904  0.25465307  0.67040553  1
  Li  Li631  1  0.74905007  0.21079972  0.68904843  1
  Li  Li632  1  0.68660038  0.07518376  0.70425702  1
  Li  Li633  1  0.68779115  0.15810735  0.73334133  1
  Li  Li634  1  0.68505361  0.25342064  0.77924015  1
  Li  Li635  1  0.67247108  0.17314005  0.84142366  1
  Li  Li636  1  0.83332076  0.29283344  0.84940693  1
  Li  Li637  1  0.82263808  0.11182621  0.93686459  1
  Li  Li638  1  0.71037579  0.35325810  0.66562122  1
  Li  Li639  1  0.78977372  0.44741590  0.67928650  1
  Li  Li640  1  0.73011372  0.34361019  0.69223430  1
  Li  Li641  1  0.62815541  0.25483086  0.74478278  1
  Li  Li642  1  0.69609781  0.43423156  0.76076960  1
  Li  Li643  1  0.61112075  0.41999899  0.79358537  1
  Li  Li644  1  0.66328950  0.37981619  0.83671722  1
  Li  Li645  1  0.83296806  0.48660631  0.85709039  1
  Li  Li646  1  0.75596088  0.39522248  0.91542982  1
  Li  Li647  1  0.70347925  0.47406549  0.66311904  1
  Li  Li648  1  0.77845230  0.57972986  0.67225449  1
  Li  Li649  1  0.69075920  0.56878232  0.70251807  1
  Li  Li650  1  0.65656624  0.43121151  0.72606844  1
  Li  Li651  1  0.66766834  0.54534511  0.73510581  1
  Li  Li652  1  0.68604930  0.61232125  0.78211740  1
  Li  Li653  1  0.71016563  0.53508941  0.81865845  1
  Li  Li654  1  0.79756946  0.53679326  0.89005887  1
  Li  Li655  1  0.78786070  0.52821872  0.94550748  1
  Li  Li656  1  0.70092599  0.67919310  0.66661580  1
  Li  Li657  1  0.77206210  0.77066719  0.67724245  1
  Li  Li658  1  0.73901809  0.66244796  0.69114283  1
  Li  Li659  1  0.70503733  0.65956323  0.73043594  1
  Li  Li660  1  0.75931229  0.76456696  0.73748088  1
  Li  Li661  1  0.69788227  0.75617423  0.81084176  1
  Li  Li662  1  0.66645549  0.68722554  0.87831401  1
  Li  Li663  1  0.76780347  0.70169408  0.91448679  1
  Li  Li664  1  0.61611183  0.68628440  0.94779875  1
  Li  Li665  1  0.67915038  0.79342297  0.65842886  1
  Li  Li666  1  0.74752426  0.89132074  0.67167167  1
  Li  Li667  1  0.71266641  0.85958279  0.69387323  1
  Li  Li668  1  0.68087027  0.76021533  0.70543247  1
  Li  Li669  1  0.61748343  0.85611064  0.72762463  1
  Li  Li670  1  0.68478394  0.92119603  0.77652813  1
  Li  Li671  1  0.62219321  0.81060875  0.84538771  1
  Li  Li672  1  0.78979775  0.87378685  0.86832653  1
  Li  Li673  1  0.71634226  0.89069828  0.93695473  1
  Li  Li674  1  0.85778181  -0.07397360  0.66049911  1
  Li  Li675  1  0.96119558  0.06734887  0.67601641  1
  Li  Li676  1  0.85764465  0.00197926  0.67937041  1
  Li  Li677  1  0.80974168  -0.01366209  0.70462380  1
  Li  Li678  1  0.87351471  0.05964074  0.73210737  1
  Li  Li679  1  0.84162878  -0.09355276  0.75301108  1
  Li  Li680  1  0.73893788  -0.02981346  0.83453460  1
  Li  Li681  1  0.94378408  0.05054757  0.89412480  1
  Li  Li682  1  0.94965677  -0.06247829  0.93812800  1
  Li  Li683  1  0.88182851  0.10731926  0.65864432  1
  Li  Li684  1  0.94747880  0.30479072  0.67416341  1
  Li  Li685  1  0.87782481  0.21414983  0.68907350  1
  Li  Li686  1  0.79252091  0.13901683  0.70557456  1
  Li  Li687  1  0.88989333  0.18071986  0.73237863  1
  Li  Li688  1  0.79869441  0.10576856  0.76452386  1
  Li  Li689  1  0.85606788  0.11793440  0.82832160  1
  Li  Li690  1  0.93926162  0.37237700  0.88869133  1
  Li  Li691  1  0.84749329  0.21640700  0.90410507  1
  Li  Li692  1  0.85092171  0.36183411  0.66130638  1
  Li  Li693  1  0.92555553  0.44224963  0.67433654  1
  Li  Li694  1  0.85614052  0.35095346  0.68765720  1
  Li  Li695  1  0.76453164  0.29766847  0.72112789  1
  Li  Li696  1  0.84909789  0.45141099  0.73421005  1
  Li  Li697  1  0.82278970  0.30566100  0.75637629  1
  Li  Li698  1  0.78311589  0.28615654  0.80957543  1
  Li  Li699  1  1.02454916  0.39587416  0.85354438  1
  Li  Li700  1  0.93314452  0.34101306  0.93757559  1
  Li  Li701  1  0.83899769  0.49610656  0.65769352  1
  Li  Li702  1  0.91975426  0.57784454  0.67262229  1
  Li  Li703  1  0.83174006  0.55754310  0.69298031  1
  Li  Li704  1  0.78227588  0.44164306  0.70289742  1
  Li  Li705  1  0.85553321  0.55172410  0.72110905  1
  Li  Li706  1  0.82425429  0.46108052  0.78719353  1
  Li  Li707  1  0.89558036  0.43671691  0.82323239  1
  Li  Li708  1  0.97833576  0.61068897  0.83821063  1
  Li  Li709  1  0.93558452  0.53966413  0.91694549  1
  Li  Li710  1  0.84041406  0.68042543  0.66219551  1
  Li  Li711  1  0.90182225  0.78581676  0.67785105  1
  Li  Li712  1  0.86451504  0.67155579  0.68508487  1
  Li  Li713  1  0.85280789  0.66037047  0.71122683  1
  Li  Li714  1  0.92979389  0.74147679  0.73727988  1
  Li  Li715  1  0.81906298  0.59704169  0.75594785  1
  Li  Li716  1  0.86321230  0.63989358  0.80524084  1
  Li  Li717  1  0.89888625  0.69717477  0.87626183  1
  Li  Li718  1  0.88164522  0.73067406  0.94803858  1
  Li  Li719  1  0.82155392  0.80725569  0.65602178  1
  Li  Li720  1  0.95638530  0.90392897  0.67822875  1
  Li  Li721  1  0.83818827  0.87840706  0.68828623  1
  Li  Li722  1  0.81522349  0.76962619  0.69934162  1
  Li  Li723  1  0.81394529  0.89103226  0.71817714  1
  Li  Li724  1  0.80473022  0.76146814  0.77566563  1
  Li  Li725  1  0.77049997  0.66030363  0.84539982  1
  Li  Li726  1  0.93468590  0.99646617  0.85169262  1
  Li  Li727  1  0.84901878  0.88571259  0.90516790  1
  La  La728  1  0.26518804  0.04094105  0.19641362  1
  La  La729  1  0.76788565  0.45156349  0.19615831  1
  La  La730  1  0.89121369  0.74418461  0.21683479  1
  La  La731  1  0.38053922  0.75720534  0.21614106  1
  La  La732  1  0.62322485  0.25459437  0.22041346  1
  La  La733  1  0.13084957  0.24990228  0.21960436  1
  La  La734  1  0.76019505  1.00543244  0.23736735  1
  La  La735  1  0.26939458  0.49768192  0.24007686  1
  La  La736  1  0.50741228  0.12249003  0.26311499  1
  La  La737  1  0.00732326  0.38581709  0.26264457  1
  La  La738  1  0.51054832  0.62559994  0.25931012  1
  La  La739  1  0.00809244  0.88726940  0.25832025  1
  La  La740  1  0.75793481  0.50635861  0.28368906  1
  La  La741  1  0.25694248  0.99952678  0.28379365  1
  La  La742  1  0.38032168  0.24978425  0.30801620  1
  La  La743  1  0.88150215  0.25930787  0.30726664  1
  La  La744  1  0.13152385  0.75145672  0.30538516  1
  La  La745  1  0.62982294  0.75910438  0.30533278  1
  La  La746  1  0.25770610  0.51415976  0.32970175  1
  La  La747  1  0.76491171  0.99103543  0.32948090  1
  La  La748  1  0.00126748  0.62392179  0.35224912  1
  La  La749  1  0.50170145  0.88139205  0.35265333  1
  La  La750  1  0.00968746  0.12427922  0.35030045  1
  La  La751  1  0.51080285  0.38393335  0.35024540  1
  La  La752  1  0.24971554  -0.00292425  0.37464749  1
  La  La753  1  0.75108626  0.50251849  0.37369484  1
  La  La754  1  0.87338094  0.75769006  0.39728029  1
  La  La755  1  0.37227951  0.75365983  0.39771629  1
  La  La756  1  0.63427489  0.24886218  0.39402883  1
  La  La757  1  0.12274118  0.27193556  0.39460609  1
  La  La758  1  0.75679944  0.01896900  0.41816558  1
  La  La759  1  0.25055327  0.48686107  0.41871061  1
  Zr  Zr760  1  1.00253988  0.01856518  0.21306748  1
  Zr  Zr761  1  0.50533831  0.01586497  0.21744051  1
  Zr  Zr762  1  0.51046775  0.50100366  0.21405141  1
  Zr  Zr763  1  0.00820868  0.49308598  0.21730233  1
  Zr  Zr764  1  0.75051983  0.25180269  0.26546413  1
  Zr  Zr765  1  0.75715679  0.76418719  0.26172760  1
  Zr  Zr766  1  0.25077785  0.25542424  0.26564559  1
  Zr  Zr767  1  0.25776659  0.74801831  0.26150821  1
  Zr  Zr768  1  0.51152440  0.51457158  0.30708086  1
  Zr  Zr769  1  0.00063945  0.50904234  0.30836309  1
  Zr  Zr770  1  0.01120954  0.99420722  0.30674082  1
  Zr  Zr771  1  0.49699601  1.00076170  0.30936848  1
  Zr  Zr772  1  0.24806556  0.75071149  0.35422898  1
  Zr  Zr773  1  0.25510173  0.26682417  0.35193972  1
  Zr  Zr774  1  0.74730676  0.75477023  0.35455026  1
  Zr  Zr775  1  0.75952474  0.24776805  0.35129779  1
  Zr  Zr776  1  0.01526586  0.01625648  0.39870607  1
  Zr  Zr777  1  0.48588901  0.01110162  0.39934515  1
  Zr  Zr778  1  0.51023083  0.48606102  0.39931080  1
  Zr  Zr779  1  0.98787878  0.50600440  0.39936373  1
  O  O780  1  0.45148536  0.07792823  0.19246373  1
  O  O781  1  0.09343742  0.98496685  0.19137650  1
  O  O782  1  0.61361214  0.53792231  0.19334215  1
  O  O783  1  0.95307133  0.42681500  0.19270717  1
  O  O784  1  0.24087656  0.83152481  0.20538943  1
  O  O785  1  0.27428989  0.21107749  0.20214450  1
  O  O786  1  0.75208164  0.75205426  0.19834685  1
  O  O787  1  0.77547063  0.28380152  0.20121078  1
  O  O788  1  0.52547114  0.86511233  0.21470926  1
  O  O789  1  0.97360015  0.17024844  0.20788875  1
  O  O790  1  0.04662258  0.64116526  0.21290193  1
  O  O791  1  0.46561278  0.35275315  0.20691155  1
  O  O792  1  0.85008980  0.97992000  0.20831397  1
  O  O793  1  0.65001466  0.08400488  0.20916246  1
  O  O794  1  0.15757756  0.44278764  0.20790039  1
  O  O795  1  0.35828483  0.55030094  0.21055291  1
  O  O796  1  0.35309196  0.98464458  0.22366579  1
  O  O797  1  0.15549726  0.07373508  0.22436208  1
  O  O798  1  0.66274395  0.43308953  0.22499418  1
  O  O799  1  0.85237003  0.54621778  0.22212552  1
  O  O800  1  0.47018060  0.16258998  0.23120719  1
  O  O801  1  0.03089944  0.86433964  0.22517408  1
  O  O802  1  0.96346301  0.35927062  0.23064183  1
  O  O803  1  0.55272537  0.64051565  0.22717144  1
  O  O804  1  0.78652019  0.19245948  0.23921859  1
  O  O805  1  0.72787003  0.82461311  0.23586352  1
  O  O806  1  0.28797885  0.31508140  0.23920483  1
  O  O807  1  0.22834095  0.68252495  0.23528235  1
  O  O808  1  0.96221158  0.03391499  0.24309829  1
  O  O809  1  0.57663932  0.99622447  0.24465732  1
  O  O810  1  0.08037297  0.51178994  0.24447239  1
  O  O811  1  0.46401594  0.47353980  0.24332185  1
  O  O812  1  0.10077475  0.22293953  0.25532807  1
  O  O813  1  0.40571484  0.79054220  0.25071957  1
  O  O814  1  0.60070277  0.28734988  0.25572084  1
  O  O815  1  0.90865999  0.72298308  0.25157234  1
  O  O816  1  0.31116314  0.11138480  0.26065936  1
  O  O817  1  0.20877935  0.89366392  0.25535100  1
  O  O818  1  0.81491878  0.39615417  0.26055629  1
  O  O819  1  0.71840363  0.61321290  0.25689484  1
  O  O820  1  0.20289333  0.40335944  0.27155705  1
  O  O821  1  0.31900845  0.59903137  0.26715410  1
  O  O822  1  0.69634839  0.10827358  0.27233280  1
  O  O823  1  0.81409789  0.91480672  0.26702728  1
  O  O824  1  0.40337100  0.29877872  0.27587939  1
  O  O825  1  0.11103211  0.70740795  0.27132660  1
  O  O826  1  0.90170479  0.20690046  0.27553621  1
  O  O827  1  0.60626664  0.79604289  0.27153221  1
  O  O828  1  0.95053590  0.53395179  0.28122686  1
  O  O829  1  0.56875648  0.48801325  0.27986885  1
  O  O830  1  0.07112338  0.02247699  0.28008829  1
  O  O831  1  0.44846333  0.97827748  0.28232673  1
  O  O832  1  0.72574905  0.31932895  0.29196840  1
  O  O833  1  0.78604738  0.72959642  0.29011601  1
  O  O834  1  0.22530132  0.19414861  0.29223455  1
  O  O835  1  0.28359013  0.79928446  0.28938616  1
  O  O836  1  0.03750261  0.35832099  0.30288447  1
  O  O837  1  0.47554115  0.66071627  0.29938115  1
  O  O838  1  0.53803242  0.15068392  0.30417406  1
  O  O839  1  0.98131154  0.84704579  0.29855718  1
  O  O840  1  0.35798630  0.47289510  0.30357141  1
  O  O841  1  0.15253094  0.56049503  0.30295647  1
  O  O842  1  0.64891086  0.95062824  0.30406794  1
  O  O843  1  0.85793834  0.03114834  0.30307088  1
  O  O844  1  0.85062732  0.45699205  0.31418922  1
  O  O845  1  0.66373091  0.56833101  0.31345453  1
  O  O846  1  0.16008127  0.94263344  0.31507444  1
  O  O847  1  0.34746248  0.05348206  0.31544600  1
  O  O848  1  0.96333507  0.64737458  0.31996968  1
  O  O849  1  0.54218986  0.36724905  0.31715574  1
  O  O850  1  0.46520874  0.86032702  0.32060324  1
  O  O851  1  0.04295644  0.14055105  0.31797267  1
  O  O852  1  0.29176301  0.69664712  0.32801626  1
  O  O853  1  0.22342798  0.32276793  0.32536419  1
  O  O854  1  0.79407272  0.81087047  0.32886678  1
  O  O855  1  0.72827994  0.18671238  0.32464355  1
  O  O856  1  0.47577422  0.53861573  0.33615987  1
  O  O857  1  0.06753227  0.48743950  0.33705414  1
  O  O858  1  0.55711605  0.02883562  0.33898920  1
  O  O859  1  0.96350427  0.97073785  0.33592673  1
  O  O860  1  0.59616798  0.72409637  0.34625403  1
  O  O861  1  0.90843282  0.28970630  0.34226129  1
  O  O862  1  0.09660678  0.78417594  0.34588298  1
  O  O863  1  0.40548703  0.22405301  0.34359897  1
  O  O864  1  0.80146927  0.60916016  0.34912930  1
  O  O865  1  0.70883616  0.39642944  0.34648159  1
  O  O866  1  0.31248302  0.89639709  0.35017863  1
  O  O867  1  0.20918348  0.11509558  0.34867609  1
  O  O868  1  0.70258744  0.90165692  0.36126743  1
  O  O869  1  0.81482398  0.10169249  0.35807519  1
  O  O870  1  0.19517133  0.60823599  0.36173039  1
  O  O871  1  0.30971062  0.41547636  0.35754244  1
  O  O872  1  0.90029873  0.79914842  0.36576741  1
  O  O873  1  0.61352095  0.20889049  0.36113624  1
  O  O874  1  0.39475133  0.70357708  0.36570974  1
  O  O875  1  0.10358578  0.30242669  0.36117178  1
  O  O876  1  0.42596834  0.04998126  0.37340648  1
  O  O877  1  0.06799592  0.98833073  0.37145190  1
  O  O878  1  0.56878865  0.51558230  0.37283034  1
  O  O879  1  0.93734750  0.48451743  0.37215811  1
  O  O880  1  0.22501828  0.81695495  0.38094102  1
  O  O881  1  0.27713445  0.23790363  0.38053928  1
  O  O882  1  0.73214553  0.68950774  0.38189538  1
  O  O883  1  0.77902146  0.30954439  0.37851487  1
  O  O884  1  0.52865951  0.85703538  0.39216521  1
  O  O885  1  0.97475959  0.16510875  0.39027034  1
  O  O886  1  0.02820560  0.65696341  0.39377316  1
  O  O887  1  0.47938895  0.33928207  0.38777948  1
  O  O888  1  0.86394365  0.97731756  0.39296040  1
  O  O889  1  0.63857678  0.05003868  0.39216593  1
  O  O890  1  0.13808667  0.45852168  0.39265345  1
  O  O891  1  0.35899120  0.52123466  0.39406449  1
  O  O892  1  0.34886324  0.93519086  0.40721849  1
  O  O893  1  0.16463524  0.07559721  0.40574734  1
  O  O894  1  0.65830338  0.42859946  0.40705399  1
  O  O895  1  0.84327056  0.55705775  0.40807016  1
  O  O896  1  0.44590152  0.15478660  0.40793685  1
  O  O897  1  0.05430463  0.87659806  0.40802633  1
  O  O898  1  0.94954147  0.36446389  0.40914559  1
  O  O899  1  0.54983035  0.62987562  0.40902384  1
  O  O900  1  0.78067337  0.18739094  0.41306314  1
  O  O901  1  0.72517915  0.83961555  0.41208305  1
  O  O902  1  0.25361364  0.31051676  0.41787744  1
  O  O903  1  0.22652072  0.67700424  0.41267022  1
  O  O904  1  0.96328436  0.05031136  0.42628505  1
  O  O905  1  0.55163059  0.99374906  0.42644795  1
  O  O906  1  0.05265569  0.52718266  0.42722384  1
  O  O907  1  0.45385297  0.42263261  0.42531619  1
