# generated using pymatgen
data_Li153La8Zr5O31
_symmetry_space_group_name_H-M   'P 1'
_cell_length_a   13.81154890
_cell_length_b   14.21312425
_cell_length_c   75.34363261
_cell_angle_alpha   89.64603175
_cell_angle_beta   90.02956796
_cell_angle_gamma   90.20917538
_symmetry_Int_Tables_number   1
_chemical_formula_structural   Li153La8Zr5O31
_chemical_formula_sum   'Li612 La32 Zr20 O124'
_cell_volume   14789.96881953
_cell_formula_units_Z   4
loop_
 _symmetry_equiv_pos_site_id
 _symmetry_equiv_pos_as_xyz
  1  'x, y, z'
loop_
 _atom_site_type_symbol
 _atom_site_label
 _atom_site_symmetry_multiplicity
 _atom_site_fract_x
 _atom_site_fract_y
 _atom_site_fract_z
 _atom_site_occupancy
  Li  Li0  1  0.70420414  0.98593324  0.17016752  1
  Li  Li1  1  0.81541588  0.13313600  0.17914768  1
  Li  Li2  1  0.19400691  0.50244970  0.16826943  1
  Li  Li3  1  0.26829926  0.35754109  0.18176343  1
  Li  Li4  1  0.85999812  0.28844035  0.18938058  1
  Li  Li5  1  0.63400073  0.77364893  0.18546530  1
  Li  Li6  1  0.40630651  0.20876013  0.17836624  1
  Li  Li7  1  0.19084114  0.70316820  0.17516021  1
  Li  Li8  1  0.33588380  0.11434573  0.20287886  1
  Li  Li9  1  0.14876933  0.83959907  0.19430042  1
  Li  Li10  1  0.80013908  0.46320557  0.20480445  1
  Li  Li11  1  0.65181635  0.60080095  0.19959193  1
  Li  Li12  1  0.41466437  0.27950100  0.20693439  1
  Li  Li13  1  0.08786639  0.64580306  0.19929180  1
  Li  Li14  1  0.91405293  0.16802677  0.21074722  1
  Li  Li15  1  0.59344834  0.86014406  0.20939066  1
  Li  Li16  1  0.31743660  0.94495237  0.21722347  1
  Li  Li17  1  0.16036677  0.02398139  0.21034402  1
  Li  Li18  1  0.58080261  0.42911571  0.21611222  1
  Li  Li19  1  0.94470775  0.58608833  0.21774540  1
  Li  Li20  1  0.41201403  0.41603326  0.23417957  1
  Li  Li21  1  0.08988604  0.59402348  0.23812934  1
  Li  Li22  1  0.65353407  0.93612449  0.24132210  1
  Li  Li23  1  0.83760315  0.08439288  0.24409049  1
  Li  Li24  1  0.02519669  0.13333897  0.23401851  1
  Li  Li25  1  0.47776095  0.89211522  0.23242103  1
  Li  Li26  1  0.59067772  0.35054883  0.24566492  1
  Li  Li27  1  0.91985433  0.67173902  0.24458286  1
  Li  Li28  1  0.22137181  0.42823386  0.25004549  1
  Li  Li29  1  0.29169088  0.58720594  0.25459339  1
  Li  Li30  1  0.66892593  0.10424587  0.26066143  1
  Li  Li31  1  0.83820239  0.90050755  0.25799879  1
  Li  Li32  1  0.36348094  0.77551834  0.26542369  1
  Li  Li33  1  0.12775843  0.25528825  0.26819577  1
  Li  Li34  1  0.86806365  0.74423352  0.27030070  1
  Li  Li35  1  0.62755315  0.25827332  0.27020045  1
  Li  Li36  1  0.82932127  0.58010288  0.28026901  1
  Li  Li37  1  0.71611163  0.41284142  0.27865265  1
  Li  Li38  1  0.28231079  0.92520845  0.28611529  1
  Li  Li39  1  0.20675601  0.08158765  0.28764228  1
  Li  Li40  1  0.91867121  0.84869945  0.29122032  1
  Li  Li41  1  0.57697466  0.15098592  0.29095072  1
  Li  Li42  1  0.41430759  0.65011674  0.28581751  1
  Li  Li43  1  0.02819095  0.36556328  0.30314893  1
  Li  Li44  1  0.85647769  0.41469115  0.30003073  1
  Li  Li45  1  0.65819812  0.59323777  0.29253742  1
  Li  Li46  1  0.08472702  0.91003002  0.30160941  1
  Li  Li47  1  0.40742175  0.09410307  0.30075667  1
  Li  Li48  1  0.92699597  0.91926893  0.32011099  1
  Li  Li49  1  0.56628070  0.07977454  0.31949647  1
  Li  Li50  1  0.15900293  0.44212164  0.32584618  1
  Li  Li51  1  0.33606138  0.53852832  0.32222853  1
  Li  Li52  1  0.51137472  0.61560339  0.31136587  1
  Li  Li53  1  0.91128540  0.32818175  0.32899695  1
  Li  Li54  1  0.09765573  0.81111088  0.33068149  1
  Li  Li55  1  0.40815162  0.19199694  0.32977349  1
  Li  Li56  1  0.64976148  0.82501289  0.33833574  1
  Li  Li57  1  0.74095183  -0.00571600  0.32769518  1
  Li  Li58  1  0.15451423  0.62537486  0.33699074  1
  Li  Li59  1  0.34461865  0.36309768  0.33840506  1
  Li  Li60  1  0.83936393  0.14647796  0.33871226  1
  Li  Li61  1  0.66196875  0.68124270  0.35673613  1
  Li  Li62  1  0.39036479  0.26068189  0.35959785  1
  Li  Li63  1  0.06988934  0.69871506  0.36198820  1
  Li  Li64  1  0.30529974  0.07960162  0.36479437  1
  Li  Li65  1  0.19280346  0.81504641  0.36023510  1
  Li  Li66  1  0.83141833  0.29744640  0.35798791  1
  Li  Li67  1  0.69762801  0.49480073  0.36751827  1
  Li  Li68  1  0.92759118  0.13683215  0.36688113  1
  Li  Li69  1  0.56957787  0.84541790  0.36674094  1
  Li  Li70  1  0.57074821  0.64162568  0.17248610  1
  Li  Li71  1  0.86691898  0.34060369  0.15773539  1
  Li  Li72  1  1.04714528  0.98297149  0.41349604  1
  Li  Li73  1  0.02482345  0.00055011  0.47266816  1
  Li  Li74  1  0.13540976  0.00448484  0.50426168  1
  Li  Li75  1  0.12936418  0.88879663  0.57303941  1
  Li  Li76  1  0.18582885  0.00279259  0.60022782  1
  Li  Li77  1  0.09334547  0.12484002  0.62401888  1
  Li  Li78  1  0.10365255  0.04117627  0.66318831  1
  Li  Li79  1  0.09862283  -0.01694913  0.70362060  1
  Li  Li80  1  0.17867627  0.11813338  0.76251094  1
  Li  Li81  1  0.22178145  0.88755647  0.40769356  1
  Li  Li82  1  0.05851831  0.11209686  0.44097304  1
  Li  Li83  1  0.04744644  0.17176778  0.49643723  1
  Li  Li84  1  0.06153409  0.11409673  0.53160527  1
  Li  Li85  1  -0.02558477  0.01410781  0.56014508  1
  Li  Li86  1  0.17122144  0.19600473  0.59552342  1
  Li  Li87  1  0.05160886  0.22779097  0.65256867  1
  Li  Li88  1  0.15232115  0.17137927  0.69199744  1
  Li  Li89  1  0.06705707  0.13487251  0.72651076  1
  Li  Li90  1  0.16781966  0.27522900  0.74157647  1
  Li  Li91  1  0.11803057  0.06173500  0.38073775  1
  Li  Li92  1  0.96266130  0.27853438  0.44129637  1
  Li  Li93  1  0.14363595  0.35189226  0.49559362  1
  Li  Li94  1  0.17825290  0.28023265  0.52924929  1
  Li  Li95  1  0.09254325  0.26165355  0.56026936  1
  Li  Li96  1  0.16476374  0.36579952  0.58905346  1
  Li  Li97  1  0.08913241  0.42562072  0.64473844  1
  Li  Li98  1  0.21552340  0.33398281  0.66600749  1
  Li  Li99  1  0.19326325  0.34105456  0.70377518  1
  Li  Li100  1  0.18486752  0.42326123  0.76491588  1
  Li  Li101  1  0.06911205  0.21369776  0.40969465  1
  Li  Li102  1  0.93867033  0.40953822  0.41559597  1
  Li  Li103  1  0.19129130  0.53415554  0.49567648  1
  Li  Li104  1  0.09458359  0.46136996  0.52671538  1
  Li  Li105  1  0.03398024  0.43797514  0.56197153  1
  Li  Li106  1  0.18667773  0.55578090  0.58236509  1
  Li  Li107  1  0.08296621  0.60849771  0.65036832  1
  Li  Li108  1  0.13770632  0.49550038  0.68385908  1
  Li  Li109  1  0.11223551  0.45373871  0.72730359  1
  Li  Li110  1  0.01705373  0.54348894  0.76989230  1
  Li  Li111  1  0.12992894  0.39647374  0.40195312  1
  Li  Li112  1  0.04770830  0.61618048  0.43748377  1
  Li  Li113  1  0.09915597  0.68359607  0.48012724  1
  Li  Li114  1  0.24329992  0.64957556  0.52362014  1
  Li  Li115  1  0.13966737  0.58861946  0.54949661  1
  Li  Li116  1  0.17687902  0.72860746  0.58950573  1
  Li  Li117  1  0.09409204  0.79201661  0.64448274  1
  Li  Li118  1  0.19014466  0.68366571  0.67812473  1
  Li  Li119  1  0.15986312  0.59742930  0.74607170  1
  Li  Li120  1  0.12606020  0.76854803  0.75308972  1
  Li  Li121  1  0.03571514  0.55554632  0.40128991  1
  Li  Li122  1  0.05177038  0.79006355  0.42092088  1
  Li  Li123  1  0.00524118  0.84095958  0.49575799  1
  Li  Li124  1  0.17533790  0.81659939  0.51402415  1
  Li  Li125  1  0.07531389  0.75571464  0.54813275  1
  Li  Li126  1  0.21299537  0.84975342  0.61771286  1
  Li  Li127  1  0.05395753  0.95500943  0.63151960  1
  Li  Li128  1  0.12124804  0.86906071  0.67593824  1
  Li  Li129  1  0.10597738  0.79503111  0.70966541  1
  Li  Li130  1  0.09321475  0.97393134  0.74247667  1
  Li  Li131  1  0.15026691  0.70314541  0.39277238  1
  Li  Li132  1  0.12324583  -0.06801484  0.44386713  1
  Li  Li133  1  0.36813641  0.03408829  0.47973027  1
  Li  Li134  1  0.27830813  0.11180620  0.53998983  1
  Li  Li135  1  0.20479175  0.93743661  0.54302339  1
  Li  Li136  1  0.31672571  -0.14106181  0.58418184  1
  Li  Li137  1  0.23574411  0.15996079  0.65453433  1
  Li  Li138  1  0.27148761  0.01169885  0.68301487  1
  Li  Li139  1  0.25160459  0.06520818  0.72161701  1
  Li  Li140  1  0.28923493  0.06512505  0.79297465  1
  Li  Li141  1  0.38905593  0.91930065  0.38039937  1
  Li  Li142  1  0.19747085  0.08054744  0.46620722  1
  Li  Li143  1  0.24182788  0.16844808  0.50264239  1
  Li  Li144  1  0.36302213  0.27886739  0.53453541  1
  Li  Li145  1  0.13828438  0.08297505  0.56631667  1
  Li  Li146  1  0.31452756  0.13276887  0.61523900  1
  Li  Li147  1  0.22003565  0.29630122  0.62804679  1
  Li  Li148  1  0.33128042  0.19809065  0.68465695  1
  Li  Li149  1  0.31204986  0.23349309  0.72084004  1
  Li  Li150  1  0.35471921  0.11380259  0.75155879  1
  Li  Li151  1  0.22002282  0.07911956  0.41778607  1
  Li  Li152  1  0.10763615  0.25530362  0.46512246  1
  Li  Li153  1  0.25387511  0.39310619  0.46295504  1
  Li  Li154  1  0.34577253  0.34716845  0.49989000  1
  Li  Li155  1  0.27322973  0.24314272  0.56743024  1
  Li  Li156  1  0.36314858  0.29669869  0.60070561  1
  Li  Li157  1  0.20252822  0.48449798  0.61755796  1
  Li  Li158  1  0.40978517  0.34633042  0.66719529  1
  Li  Li159  1  0.33393337  0.44774719  0.68976438  1
  Li  Li160  1  0.32361814  0.40024277  0.73406108  1
  Li  Li161  1  0.23428826  0.25228156  0.39208174  1
  Li  Li162  1  0.11023928  0.42187709  0.43638137  1
  Li  Li163  1  0.22209355  0.57733316  0.45831416  1
  Li  Li164  1  0.28479559  0.46135158  0.52326244  1
  Li  Li165  1  0.22522974  0.41340498  0.55524443  1
  Li  Li166  1  0.33430999  0.46537651  0.59003869  1
  Li  Li167  1  0.21985300  0.67036385  0.62675628  1
  Li  Li168  1  0.26081325  0.51504961  0.65470224  1
  Li  Li169  1  0.25004270  0.54285053  0.71366349  1
  Li  Li170  1  0.33322695  0.56314521  0.75434956  1
  Li  Li171  1  0.30260059  0.40278701  0.41596168  1
  Li  Li172  1  0.22464864  0.58970841  0.42111390  1
  Li  Li173  1  0.29605951  0.71101816  0.48760165  1
  Li  Li174  1  0.36606686  0.80450589  0.52258093  1
  Li  Li175  1  0.33925884  0.56336788  0.55238631  1
  Li  Li176  1  0.36493520  0.65785125  0.58599788  1
  Li  Li177  1  0.27464674  0.86216544  0.65541278  1
  Li  Li178  1  0.36873486  0.62927453  0.68965620  1
  Li  Li179  1  0.27238393  0.70301472  0.72338950  1
  Li  Li180  1  0.32900413  0.76100294  0.75753904  1
  Li  Li181  1  0.32338758  0.72109603  0.38802640  1
  Li  Li182  1  0.20230753  0.75898615  0.44725487  1
  Li  Li183  1  0.21051466  0.88261714  0.47805728  1
  Li  Li184  1  0.32107399  0.98290099  0.51367156  1
  Li  Li185  1  0.26031726  0.74988396  0.55558543  1
  Li  Li186  1  0.37879415  0.76699542  0.61603475  1
  Li  Li187  1  0.24136101  1.00191582  0.63676967  1
  Li  Li188  1  0.30763755  0.82065174  0.69170777  1
  Li  Li189  1  0.24148529  0.88014001  0.72682193  1
  Li  Li190  1  0.37864626  0.87993942  0.79370238  1
  Li  Li191  1  0.35146148  0.76924630  0.42307141  1
  Li  Li192  1  0.30498385  0.94948444  0.44344881  1
  Li  Li193  1  0.43358606  0.14974624  0.51039144  1
  Li  Li194  1  0.47592941  0.08125073  0.54555326  1
  Li  Li195  1  0.39036124  0.91507182  0.55306066  1
  Li  Li196  1  0.39466308  -0.03925580  0.61086836  1
  Li  Li197  1  0.40792260  0.06174958  0.65074274  1
  Li  Li198  1  0.45037742  -0.04410421  0.67683473  1
  Li  Li199  1  0.41094431  -0.05140625  0.71009281  1
  Li  Li200  1  0.54503620  0.08639673  0.74375406  1
  Li  Li201  1  0.51546930  0.87262471  0.43102887  1
  Li  Li202  1  0.37924645  0.11582051  0.44429781  1
  Li  Li203  1  0.32249533  0.22923270  0.47171301  1
  Li  Li204  1  0.53819143  0.30381574  0.50503322  1
  Li  Li205  1  0.31950105  0.05179249  0.57718965  1
  Li  Li206  1  0.50137767  0.14880917  0.60599296  1
  Li  Li207  1  0.39501143  0.23210318  0.64126966  1
  Li  Li208  1  0.50719652  0.17689908  0.67791135  1
  Li  Li209  1  0.44724716  0.11868661  0.71202396  1
  Li  Li210  1  0.48094245  0.26743882  0.74098899  1
  Li  Li211  1  0.40092670  -0.00429391  0.41408705  1
  Li  Li212  1  0.21969902  0.25039713  0.43432481  1
  Li  Li213  1  0.46512180  0.37437278  0.47116388  1
  Li  Li214  1  0.47116727  0.44271115  0.52974285  1
  Li  Li215  1  0.44102599  0.18925000  0.57196042  1
  Li  Li216  1  0.55459583  0.31070911  0.58620795  1
  Li  Li217  1  0.37615994  0.41062159  0.63244721  1
  Li  Li218  1  0.57848916  0.35349069  0.65767314  1
  Li  Li219  1  0.45887233  0.31989329  0.70376247  1
  Li  Li220  1  0.49240564  0.45567942  0.75229917  1
  Li  Li221  1  0.38643008  0.19137946  0.40873626  1
  Li  Li222  1  0.39472654  0.48778798  0.44335454  1
  Li  Li223  1  0.37709681  0.52515773  0.48366968  1
  Li  Li224  1  0.41716690  0.61598193  0.51557036  1
  Li  Li225  1  0.41667101  0.38205149  0.56333550  1
  Li  Li226  1  0.50642662  0.47121944  0.59916588  1
  Li  Li227  1  0.38289147  0.57802911  0.62071478  1
  Li  Li228  1  0.44805710  0.53897345  0.66013015  1
  Li  Li229  1  0.44775367  0.52604163  0.71864505  1
  Li  Li230  1  0.54947308  0.58295999  0.77731169  1
  Li  Li231  1  0.43210738  0.38015248  0.38803989  1
  Li  Li232  1  0.39522696  0.65906485  0.45216214  1
  Li  Li233  1  0.49589285  0.68565977  0.48436384  1
  Li  Li234  1  0.56508640  0.76973515  0.51556260  1
  Li  Li235  1  0.50619469  0.55554603  0.56765663  1
  Li  Li236  1  0.55193661  0.64464409  0.60407178  1
  Li  Li237  1  0.33372427  0.69359302  0.65307471  1
  Li  Li238  1  0.55710064  0.64417947  0.70251125  1
  Li  Li239  1  0.49048991  0.65047515  0.74474042  1
  Li  Li240  1  0.53777595  0.81497366  0.76331160  1
  Li  Li241  1  0.40205953  0.57575801  0.40998121  1
  Li  Li242  1  0.39848243  0.83065659  0.46077904  1
  Li  Li243  1  0.44282842  0.86883945  0.49195291  1
  Li  Li244  1  0.50446239  0.95379876  0.52219399  1
  Li  Li245  1  0.45224928  0.71722133  0.54919747  1
  Li  Li246  1  0.50114884  0.80009871  0.58232052  1
  Li  Li247  1  0.44907620  0.87276436  0.64388127  1
  Li  Li248  1  0.47608565  0.75309009  0.67377213  1
  Li  Li249  1  0.44383155  0.77177347  0.71967218  1
  Li  Li250  1  0.58916685  0.92991434  0.72969112  1
  Li  Li251  1  0.51254618  0.75760812  0.40143069  1
  Li  Li252  1  0.52704964  -0.01451360  0.45878515  1
  Li  Li253  1  0.56110374  0.04879349  0.49310966  1
  Li  Li254  1  0.63660693  0.12445956  0.52422451  1
  Li  Li255  1  0.51079855  1.00061028  0.58057042  1
  Li  Li256  1  0.68576765  0.06229617  0.60132865  1
  Li  Li257  1  0.57182216  0.18104837  0.64168163  1
  Li  Li258  1  0.60068748  0.02286170  0.66173202  1
  Li  Li259  1  0.60850117  0.03473809  0.69816393  1
  Li  Li260  1  0.74205661  0.06365145  0.73190541  1
  Li  Li261  1  0.58458621  0.94603152  0.39903985  1
  Li  Li262  1  0.56024292  0.10837012  0.42920110  1
  Li  Li263  1  0.51757449  0.18764556  0.47092211  1
  Li  Li264  1  0.74188515  0.24894056  0.54104856  1
  Li  Li265  1  0.63667096  0.17109763  0.57001959  1
  Li  Li266  1  0.70490875  0.23342142  0.60668590  1
  Li  Li267  1  0.53282205  0.31958351  0.62121890  1
  Li  Li268  1  0.68643010  0.18434578  0.67235602  1
  Li  Li269  1  0.62804900  0.20112189  0.71532816  1
  Li  Li270  1  0.67705389  0.24080007  0.75094286  1
  Li  Li271  1  0.50740421  0.10225963  0.38248844  1
  Li  Li272  1  0.41999192  0.29914081  0.43728560  1
  Li  Li273  1  0.65382461  0.38402734  0.47801598  1
  Li  Li274  1  0.66408022  0.40525357  0.52566101  1
  Li  Li275  1  0.54344244  0.26652533  0.54264461  1
  Li  Li276  1  0.67573776  0.41360794  0.60698199  1
  Li  Li277  1  0.56589032  0.49773118  0.63444531  1
  Li  Li278  1  0.65937299  0.33042867  0.69225146  1
  Li  Li279  1  0.60130543  0.39238330  0.72511654  1
  Li  Li280  1  0.68659749  0.44963601  0.76637830  1
  Li  Li281  1  0.57516933  0.26780831  0.40651022  1
  Li  Li282  1  0.56922066  0.53901775  0.46107593  1
  Li  Li283  1  0.57316260  0.51408960  0.49898239  1
  Li  Li284  1  0.58732895  0.59525692  0.53325776  1
  Li  Li285  1  0.61491041  0.41564446  0.56044322  1
  Li  Li286  1  0.69041115  0.54518235  0.58609225  1
  Li  Li287  1  0.52435573  0.69068849  0.63907599  1
  Li  Li288  1  0.54777722  0.47650966  0.68644961  1
  Li  Li289  1  0.66063817  0.55938390  0.73106786  1
  Li  Li290  1  0.70526362  0.66697037  0.76219047  1
  Li  Li291  1  0.55028066  0.45301515  0.41974887  1
  Li  Li292  1  0.54719062  0.64731132  0.43012271  1
  Li  Li293  1  0.68966064  0.67583405  0.49156651  1
  Li  Li294  1  0.72916039  0.73169411  0.53295411  1
  Li  Li295  1  0.63082222  0.68687362  0.56459815  1
  Li  Li296  1  0.70886682  0.72740929  0.59744572  1
  Li  Li297  1  0.56545344  0.83019577  0.61674564  1
  Li  Li298  1  0.63363651  0.62421815  0.66581730  1
  Li  Li299  1  0.63139631  0.75159565  0.72992732  1
  Li  Li300  1  0.81439511  0.73664992  0.80908312  1
  Li  Li301  1  0.54940804  0.58727147  0.38538920  1
  Li  Li302  1  0.59444302  0.76751408  0.45800288  1
  Li  Li303  1  0.64441833  0.88231192  0.48518683  1
  Li  Li304  1  0.68946455  0.93287896  0.52236750  1
  Li  Li305  1  0.57874127  0.85843339  0.54985577  1
  Li  Li306  1  0.65730967  0.90115942  0.59137398  1
  Li  Li307  1  0.55622226  1.01150758  0.62668094  1
  Li  Li308  1  0.62929493  0.84008117  0.65977960  1
  Li  Li309  1  0.57684744  0.84915746  0.69546743  1
  Li  Li310  1  0.67090458  0.99079607  0.76599131  1
  Li  Li311  1  0.68609213  0.78408518  0.42174460  1
  Li  Li312  1  0.71521561  0.92823239  0.44390139  1
  Li  Li313  1  0.75149601  0.04857484  0.49707043  1
  Li  Li314  1  0.82463370  0.07005647  0.53797061  1
  Li  Li315  1  0.66900032  1.01166208  0.55640611  1
  Li  Li316  1  0.87015922  0.03080299  0.61478341  1
  Li  Li317  1  0.74246068  0.11408820  0.63859424  1
  Li  Li318  1  0.77377707  -0.02043189  0.66347672  1
  Li  Li319  1  0.75547681  -0.10690005  0.70860106  1
  Li  Li320  1  0.81433576  0.12856758  0.77088207  1
  Li  Li321  1  0.83916378  0.89138369  0.40897035  1
  Li  Li322  1  0.69769155  0.10698187  0.45936192  1
  Li  Li323  1  0.69402837  0.21716414  0.49176713  1
  Li  Li324  1  0.92490273  0.21317350  0.55235558  1
  Li  Li325  1  0.81940465  0.15519627  0.57966854  1
  Li  Li326  1  0.89077191  0.21337904  0.62156145  1
  Li  Li327  1  0.73106596  0.31409040  0.63811788  1
  Li  Li328  1  0.79133239  0.06449290  0.69157500  1
  Li  Li329  1  0.81980512  0.21505677  0.70836384  1
  Li  Li330  1  0.84046426  0.31912828  0.76225257  1
  Li  Li331  1  0.72990204  0.05220587  0.41503984  1
  Li  Li332  1  0.59777616  0.30354441  0.44629093  1
  Li  Li333  1  0.78821454  0.29219959  0.46116659  1
  Li  Li334  1  0.80160023  0.37107377  0.50435494  1
  Li  Li335  1  0.75793446  0.33471581  0.57514908  1
  Li  Li336  1  0.85111988  0.40057223  0.61121685  1
  Li  Li337  1  0.74466469  0.45531643  0.66085774  1
  Li  Li338  1  0.84746990  0.36501342  0.68773449  1
  Li  Li339  1  0.79276081  0.37755243  0.72750993  1
  Li  Li340  1  0.87282324  0.41615958  0.79005501  1
  Li  Li341  1  0.74527095  0.19399494  0.38649599  1
  Li  Li342  1  0.72436430  0.44603053  0.43875170  1
  Li  Li343  1  0.78367976  0.51423498  0.47852002  1
  Li  Li344  1  0.78439133  0.56121403  0.51633257  1
  Li  Li345  1  0.74174306  0.53517925  0.55094852  1
  Li  Li346  1  0.86878267  0.49122961  0.57745287  1
  Li  Li347  1  0.73294284  0.56255994  0.62681415  1
  Li  Li348  1  0.73326836  0.51645970  0.69751053  1
  Li  Li349  1  0.84407126  0.53303540  0.74998325  1
  Li  Li350  1  0.84441436  0.58945575  0.78721761  1
  Li  Li351  1  0.74739784  0.40080747  0.40276448  1
  Li  Li352  1  0.73093102  0.62892680  0.44859124  1
  Li  Li353  1  0.89690264  0.67691441  0.49525374  1
  Li  Li354  1  0.91459348  0.73759187  0.53054277  1
  Li  Li355  1  0.83310081  0.67485224  0.56439760  1
  Li  Li356  1  0.86710729  0.63153204  0.60226756  1
  Li  Li357  1  0.72504845  0.74026738  0.63474912  1
  Li  Li358  1  0.82336787  0.62405678  0.66055943  1
  Li  Li359  1  0.71557282  0.71563508  0.69431139  1
  Li  Li360  1  0.84499257  0.93967539  0.78368799  1
  Li  Li361  1  0.70542551  0.60496197  0.40862135  1
  Li  Li362  1  0.79967269  0.78206661  0.46778624  1
  Li  Li363  1  0.81395281  0.84081325  0.50461221  1
  Li  Li364  1  0.84563038  0.89318657  0.54145636  1
  Li  Li365  1  0.74262646  0.83062348  0.56598542  1
  Li  Li366  1  0.84466326  0.83993792  0.60508481  1
  Li  Li367  1  0.72099919  0.92544646  0.62944818  1
  Li  Li368  1  0.81121303  0.80089637  0.67085537  1
  Li  Li369  1  0.76301889  0.85701768  0.74668316  1
  Li  Li370  1  0.90208194  0.99602576  0.75015688  1
  Li  Li371  1  0.72338686  0.77367917  0.38566951  1
  Li  Li372  1  0.91951274  0.93807675  0.44024165  1
  Li  Li373  1  0.83856435  -0.04542095  0.47293013  1
  Li  Li374  1  0.92633584  0.01041651  0.50768900  1
  Li  Li375  1  0.94277011  0.82141436  0.57194780  1
  Li  Li376  1  0.00453348  -0.03867830  0.59559777  1
  Li  Li377  1  0.92988931  0.07701695  0.64856532  1
  Li  Li378  1  -0.05506525  -0.04959524  0.67830769  1
  Li  Li379  1  0.92037443  0.00371410  0.71568342  1
  Li  Li380  1  0.02381493  0.23392255  0.76432449  1
  Li  Li381  1  1.01091704  0.87824514  0.38219388  1
  Li  Li382  1  0.86791748  0.10831358  0.43643885  1
  Li  Li383  1  0.89747494  0.14559824  0.47257998  1
  Li  Li384  1  0.86052860  0.19328993  0.51160458  1
  Li  Li385  1  0.82510679  -0.02099437  0.57918326  1
  Li  Li386  1  -0.00449661  0.13650571  0.59097285  1
  Li  Li387  1  0.85715771  0.21705216  0.66641347  1
  Li  Li388  1  -0.02580023  0.13749688  0.68995660  1
  Li  Li389  1  0.89524522  0.18033116  0.73908518  1
  Li  Li390  1  0.04800563  0.35635653  0.78890379  1
  Li  Li391  1  0.91470442  0.06197133  0.39714006  1
  Li  Li392  1  0.73731492  0.24250344  0.42723127  1
  Li  Li393  1  0.94644222  0.33072451  0.48181620  1
  Li  Li394  1  -0.00930686  0.31291145  0.52190175  1
  Li  Li395  1  0.94833268  0.30810223  0.58451844  1
  Li  Li396  1  0.04156794  0.31379429  0.61687060  1
  Li  Li397  1  0.90913728  0.35824252  0.64748368  1
  Li  Li398  1  0.03028094  0.32827231  0.68193665  1
  Li  Li399  1  1.00345547  0.29678654  0.71706107  1
  Li  Li400  1  -0.01479589  0.40094153  0.74847375  1
  Li  Li401  1  0.88765348  0.24079649  0.40794756  1
  Li  Li402  1  0.90317751  0.44952746  0.45135794  1
  Li  Li403  1  1.06118423  0.48137610  0.46994185  1
  Li  Li404  1  0.96192429  0.49701353  0.50110515  1
  Li  Li405  1  0.86348867  0.39385987  0.54345341  1
  Li  Li406  1  0.02169656  0.47517757  0.59937323  1
  Li  Li407  1  0.92479892  0.52370215  0.63318545  1
  Li  Li408  1  -0.04528045  0.50439454  0.67167877  1
  Li  Li409  1  0.94177960  0.47618844  0.71139797  1
  Li  Li410  1  -0.01377813  0.64395113  0.73618431  1
  Li  Li411  1  0.97748507  0.35197900  0.37960731  1
  Li  Li412  1  0.86943929  0.57092289  0.42338594  1
  Li  Li413  1  0.92179781  0.62575974  0.46294034  1
  Li  Li414  1  0.06288455  0.65223926  0.51521679  1
  Li  Li415  1  0.94010043  0.56676739  0.54062445  1
  Li  Li416  1  0.06038098  0.62613513  0.61346520  1
  Li  Li417  1  0.91953490  0.70975836  0.63429436  1
  Li  Li418  1  0.07564977  0.62196392  0.70644118  1
  Li  Li419  1  0.88820939  0.63027434  0.69616736  1
  Li  Li420  1  -0.03832052  0.83397716  0.73517856  1
  Li  Li421  1  0.85997952  0.55108220  0.38129103  1
  Li  Li422  1  0.86769261  0.75238974  0.43436246  1
  Li  Li423  1  1.00227605  0.80537633  0.46032336  1
  Li  Li424  1  1.02322230  0.90906298  0.53143757  1
  Li  Li425  1  1.01190910  0.63928306  0.57638913  1
  Li  Li426  1  0.02851418  0.79981934  0.60848943  1
  Li  Li427  1  0.90249838  0.88175596  0.64317998  1
  Li  Li428  1  -0.00765241  0.72458816  0.67265450  1
  Li  Li429  1  0.92255956  0.80932676  0.70215812  1
  Li  Li430  1  0.00602783  1.06332737  0.77674663  1
  Li  Li431  1  0.91242298  0.71396464  0.39945615  1
  Li  Li432  1  -0.03225757  0.17811874  0.83393257  1
  Li  Li433  1  0.07588485  0.07817841  0.89427309  1
  Li  Li434  1  0.12993862  0.21187522  0.92286905  1
  Li  Li435  1  0.10259854  0.18882533  0.96474542  1
  Li  Li436  1  0.13670728  -0.04115997  0.80081285  1
  Li  Li437  1  -0.13262923  0.23740503  0.86365373  1
  Li  Li438  1  -0.00173154  0.26302214  0.89370215  1
  Li  Li439  1  0.22627794  0.32187348  0.94975821  1
  Li  Li440  1  0.26514001  0.22519818  0.98736278  1
  Li  Li441  1  0.09769403  0.14999004  0.80408635  1
  Li  Li442  1  0.04059585  0.33218680  0.85788050  1
  Li  Li443  1  0.14616659  0.44025566  0.88087455  1
  Li  Li444  1  0.15439249  0.51668820  0.94929033  1
  Li  Li445  1  0.10606843  0.38455055  0.98312258  1
  Li  Li446  1  0.13165919  0.29829772  0.82584672  1
  Li  Li447  1  0.02741108  0.51361040  0.84659633  1
  Li  Li448  1  0.03506120  0.61734771  0.89349063  1
  Li  Li449  1  0.13911855  0.69997741  0.92537471  1
  Li  Li450  1  0.15274330  0.59334281  0.98438831  1
  Li  Li451  1  0.03007285  0.52236737  0.80771397  1
  Li  Li452  1  0.03350931  0.74022585  0.85968446  1
  Li  Li453  1  0.00130042  0.81103324  0.91470742  1
  Li  Li454  1  0.13135132  0.86556626  0.94913456  1
  Li  Li455  1  0.00225149  0.83524665  0.98400994  1
  Li  Li456  1  0.02960955  0.69899394  0.79162894  1
  Li  Li457  1  0.03323612  0.88118782  0.77389449  1
  Li  Li458  1  0.19206857  0.95838355  0.86757183  1
  Li  Li459  1  0.18921499  1.05295520  0.94106909  1
  Li  Li460  1  0.18413369  1.00995221  0.98230728  1
  Li  Li461  1  -0.03409012  0.84805744  0.80881931  1
  Li  Li462  1  0.28027562  -0.05293751  0.82853098  1
  Li  Li463  1  0.27533433  0.07768522  0.89716639  1
  Li  Li464  1  0.33851660  0.19588041  0.92447604  1
  Li  Li465  1  0.39957705  0.04154400  0.99306332  1
  Li  Li466  1  0.24202203  -0.06407460  0.76568593  1
  Li  Li467  1  0.11861904  0.15644706  0.86069844  1
  Li  Li468  1  0.20120786  0.25752062  0.88833278  1
  Li  Li469  1  0.29149781  0.37565462  0.91288675  1
  Li  Li470  1  0.34264632  0.12392960  0.95950401  1
  Li  Li471  1  0.26050180  0.14931433  0.82697298  1
  Li  Li472  1  0.21785645  0.46176677  0.84155433  1
  Li  Li473  1  0.34099136  0.45857305  0.87724508  1
  Li  Li474  1  0.08904651  0.40924020  0.91597067  1
  Li  Li475  1  0.30902932  0.43264379  0.98207847  1
  Li  Li476  1  0.22265579  0.25881940  0.78979280  1
  Li  Li477  1  0.16648213  0.63871540  0.82557144  1
  Li  Li478  1  0.17510309  0.61156199  0.86610229  1
  Li  Li479  1  0.23952229  0.56475875  0.91040441  1
  Li  Li480  1  0.26371675  0.69386248  0.95362224  1
  Li  Li481  1  0.19631749  0.43981497  0.80409792  1
  Li  Li482  1  0.12208389  0.82419674  0.82956745  1
  Li  Li483  1  0.17210730  0.77155251  0.88953627  1
  Li  Li484  1  0.31690206  0.80457824  0.92380658  1
  Li  Li485  1  0.22156683  0.79315343  0.98562235  1
  Li  Li486  1  0.20184117  0.59882265  0.78331620  1
  Li  Li487  1  0.10134165  1.02368231  0.83540286  1
  Li  Li488  1  0.17422066  0.92628763  0.91121210  1
  Li  Li489  1  0.37179053  0.99670587  0.92869989  1
  Li  Li490  1  0.32422897  0.91159284  0.96069949  1
  Li  Li491  1  0.20453274  0.78409671  0.79271229  1
  Li  Li492  1  0.41536601  -0.04799916  0.85853000  1
  Li  Li493  1  0.32445734  0.11274094  0.86155595  1
  Li  Li494  1  0.47612430  0.06018264  0.89904398  1
  Li  Li495  1  0.52456140  0.17801379  0.97225010  1
  Li  Li496  1  0.46542407  0.00676148  0.77569430  1
  Li  Li497  1  0.27239911  0.30055384  0.85469947  1
  Li  Li498  1  0.40513924  0.24932729  0.88656035  1
  Li  Li499  1  0.48854962  0.33355083  0.92201544  1
  Li  Li500  1  0.46079343  0.26773123  1.00128801  1
  Li  Li501  1  0.42222212  0.19457339  0.79514352  1
  Li  Li502  1  0.34824759  0.33553344  0.81718053  1
  Li  Li503  1  0.46161264  0.51305332  0.90667972  1
  Li  Li504  1  0.35565353  0.49196880  0.94428019  1
  Li  Li505  1  0.41862894  0.31399001  0.95800611  1
  Li  Li506  1  0.33742858  0.28743068  0.76414079  1
  Li  Li507  1  0.33486627  0.55140149  0.81517989  1
  Li  Li508  1  0.34988481  0.61679466  0.85027479  1
  Li  Li509  1  0.43530270  0.65880449  0.92935596  1
  Li  Li510  1  0.39163758  0.62108860  0.97707461  1
  Li  Li511  1  0.36722417  0.44655817  0.78364183  1
  Li  Li512  1  0.33248327  0.74680676  0.82051870  1
  Li  Li513  1  0.34809327  0.67143494  0.88705085  1
  Li  Li514  1  0.52622271  0.88269671  0.92392693  1
  Li  Li515  1  0.47265290  0.78516488  0.95597607  1
  Li  Li516  1  0.38731974  0.66389288  0.78731134  1
  Li  Li517  1  0.27361668  0.79395107  0.85550868  1
  Li  Li518  1  0.36130450  0.88587237  0.89096495  1
  Li  Li519  1  0.52415049  0.98411236  0.96027394  1
  Li  Li520  1  0.44198222  0.82845218  0.99185551  1
  Li  Li521  1  0.40833517  0.92644093  0.74378573  1
  Li  Li522  1  0.44166633  0.06346796  0.82321799  1
  Li  Li523  1  0.53602906  0.10839298  0.86490980  1
  Li  Li524  1  0.60506341  0.21585623  0.89821595  1
  Li  Li525  1  0.62578353  0.05042482  0.99539157  1
  Li  Li526  1  0.59920499  -0.03887418  0.80325348  1
  Li  Li527  1  0.46282840  0.25131264  0.84540674  1
  Li  Li528  1  0.54536325  0.38208966  0.87911475  1
  Li  Li529  1  0.66437257  0.42029675  0.91578395  1
  Li  Li530  1  0.53244332  0.14357856  0.93516490  1
  Li  Li531  1  0.59495271  0.14693997  0.78238594  1
  Li  Li532  1  0.43455006  0.44544084  0.84410478  1
  Li  Li533  1  0.70785472  0.49883577  0.87776131  1
  Li  Li534  1  0.64165233  0.61350850  0.90932393  1
  Li  Li535  1  0.52800099  0.44243661  0.98221509  1
  Li  Li536  1  0.53655515  0.33558002  0.77761159  1
  Li  Li537  1  0.51039460  0.63833641  0.83012671  1
  Li  Li538  1  0.52492735  0.58009405  0.87047775  1
  Li  Li539  1  0.64017688  0.71119766  0.94149407  1
  Li  Li540  1  0.55717280  0.52188078  0.94643557  1
  Li  Li541  1  0.51076292  0.48840310  0.80741577  1
  Li  Li542  1  0.49290944  0.77051443  0.85982444  1
  Li  Li543  1  0.51322074  0.74462221  0.89843685  1
  Li  Li544  1  0.70609242  0.89539264  0.94523548  1
  Li  Li545  1  0.59839523  0.65060657  0.97813747  1
  Li  Li546  1  0.53737710  0.75821297  0.79976260  1
  Li  Li547  1  0.46755761  0.86795223  0.82759093  1
  Li  Li548  1  0.58526985  0.91887961  0.88280855  1
  Li  Li549  1  0.67081562  1.03055446  0.91479813  1
  Li  Li550  1  0.64652854  0.84692990  0.97984095  1
  Li  Li551  1  0.70431947  0.81597217  0.78529918  1
  Li  Li552  1  0.61453809  0.14309268  0.82644260  1
  Li  Li553  1  0.72395955  0.08931271  0.87858209  1
  Li  Li554  1  0.73075836  0.22949168  0.92786114  1
  Li  Li555  1  0.70226818  0.12575091  0.96061316  1
  Li  Li556  1  0.75865025  0.09655730  0.80424053  1
  Li  Li557  1  0.55903375  0.30956240  0.81410622  1
  Li  Li558  1  0.66600522  0.25923576  0.85902047  1
  Li  Li559  1  0.88004965  0.38354201  0.92094830  1
  Li  Li560  1  0.69260441  0.27968556  0.98934782  1
  Li  Li561  1  0.71743316  0.27754049  0.79006762  1
  Li  Li562  1  0.63046219  0.43203410  0.84082032  1
  Li  Li563  1  0.83069914  0.56912487  0.90323838  1
  Li  Li564  1  0.76748880  0.53441074  0.94190240  1
  Li  Li565  1  0.62177234  0.33499676  0.95322544  1
  Li  Li566  1  0.69850372  0.44094059  0.80497434  1
  Li  Li567  1  0.69712351  0.61028513  0.84403563  1
  Li  Li568  1  0.68179172  0.71885005  0.87448274  1
  Li  Li569  1  0.84088158  0.71283355  0.92898217  1
  Li  Li570  1  0.73835630  0.49777582  0.97879673  1
  Li  Li571  1  0.66940282  0.62257241  0.80580573  1
  Li  Li572  1  0.64967007  0.78613755  0.83081870  1
  Li  Li573  1  0.70755531  0.81735593  0.90811836  1
  Li  Li574  1  0.85572952  0.94665030  0.90417600  1
  Li  Li575  1  0.80987666  0.71398447  0.96796561  1
  Li  Li576  1  0.81049458  0.69543375  0.72704092  1
  Li  Li577  1  0.62061893  0.96600053  0.84477137  1
  Li  Li578  1  0.77934545  0.90885688  0.86810969  1
  Li  Li579  1  0.83020827  1.04413667  0.93987460  1
  Li  Li580  1  0.81845458  0.96501176  0.97828970  1
  Li  Li581  1  0.78037852  0.92148448  0.82087047  1
  Li  Li582  1  0.79213213  0.08030718  0.84184586  1
  Li  Li583  1  0.85996526  0.14232090  0.90405680  1
  Li  Li584  1  -0.05652972  0.19882443  0.93701869  1
  Li  Li585  1  0.89184364  0.17871693  0.97647400  1
  Li  Li586  1  0.93976950  0.03309624  0.81142989  1
  Li  Li587  1  0.76997007  0.28004988  0.82633710  1
  Li  Li588  1  0.77314594  0.32160614  0.89072239  1
  Li  Li589  1  0.01831402  0.35885419  0.95052357  1
  Li  Li590  1  0.81743453  0.33928132  0.95683022  1
  Li  Li591  1  0.91428837  0.22189985  0.79787507  1
  Li  Li592  1  0.82788135  0.41498694  0.85260795  1
  Li  Li593  1  0.94111918  0.44186332  0.88414990  1
  Li  Li594  1  -0.01749843  0.56538125  0.92851386  1
  Li  Li595  1  0.90461258  0.37964879  0.99187083  1
  Li  Li596  1  0.94841741  0.36592895  0.82342118  1
  Li  Li597  1  0.87721235  0.60006131  0.86415984  1
  Li  Li598  1  0.87320269  0.75292198  0.88753546  1
  Li  Li599  1  0.02834167  0.69478086  0.95741794  1
  Li  Li600  1  0.94200020  0.51860690  0.96359905  1
  Li  Li601  1  0.84002839  0.53422630  0.82396409  1
  Li  Li602  1  0.82791037  0.76287062  0.84604508  1
  Li  Li603  1  1.01222258  0.90132138  0.88122075  1
  Li  Li604  1  -0.08635550  0.86499785  0.94698524  1
  Li  Li605  1  0.93726575  0.61591577  0.99505599  1
  Li  Li606  1  0.96986796  0.67579085  0.82733245  1
  Li  Li607  1  0.95005499  0.91609547  0.84488463  1
  Li  Li608  1  0.93543196  1.06802325  0.86883336  1
  Li  Li609  1  0.01044952  1.01615461  0.92547451  1
  Li  Li610  1  1.00468951  1.02023995  0.96269550  1
  Li  Li611  1  0.89530181  0.74464196  0.76593374  1
  La  La612  1  0.26537128  0.99488590  0.17033039  1
  La  La613  1  0.72517093  0.49209687  0.16877610  1
  La  La614  1  0.85299127  0.72341392  0.18905572  1
  La  La615  1  0.39587376  0.79680055  0.18927465  1
  La  La616  1  0.63419188  0.25732907  0.18884219  1
  La  La617  1  0.09532472  0.24157262  0.18765143  1
  La  La618  1  0.74850841  1.00929585  0.21008633  1
  La  La619  1  0.24728020  0.52645156  0.20910735  1
  La  La620  1  0.52281981  0.13208980  0.23098696  1
  La  La621  1  0.00983092  0.38263691  0.22641566  1
  La  La622  1  0.49235763  0.63957701  0.22585241  1
  La  La623  1  1.00295923  0.87367973  0.22660579  1
  La  La624  1  0.74280952  0.51899771  0.24463649  1
  La  La625  1  0.24520123  1.01887892  0.25034078  1
  La  La626  1  0.37297447  0.26445937  0.26676882  1
  La  La627  1  0.88953648  0.26898364  0.26774647  1
  La  La628  1  0.12213914  0.76959103  0.26819760  1
  La  La629  1  0.60793836  0.76816979  0.26699603  1
  La  La630  1  0.23740983  0.49328348  0.28824041  1
  La  La631  1  0.75020452  0.99809751  0.28915384  1
  La  La632  1  0.99752031  0.62912046  0.30724705  1
  La  La633  1  0.49400747  0.86447185  0.30802797  1
  La  La634  1  -0.00157363  0.13002930  0.30843923  1
  La  La635  1  0.51591537  0.37419773  0.30642034  1
  La  La636  1  0.25206176  -0.00322639  0.32896946  1
  La  La637  1  0.73899130  0.51374174  0.32799020  1
  La  La638  1  0.87128735  0.76254775  0.34699737  1
  La  La639  1  0.38613762  0.73235385  0.34559589  1
  La  La640  1  0.62164030  0.24264607  0.34687129  1
  La  La641  1  0.12087149  0.23229487  0.34799606  1
  La  La642  1  0.73852009  -0.00916927  0.36554218  1
  La  La643  1  0.26330195  0.51894954  0.36781004  1
  Zr  Zr644  1  0.97328060  0.00895197  0.18800977  1
  Zr  Zr645  1  0.50385569  0.02773151  0.18732825  1
  Zr  Zr646  1  0.46295130  0.46898457  0.18389692  1
  Zr  Zr647  1  0.00496278  0.48484917  0.18168300  1
  Zr  Zr648  1  0.75575975  0.26419278  0.22983895  1
  Zr  Zr649  1  0.74655249  0.75968031  0.22881431  1
  Zr  Zr650  1  0.24103631  0.23912089  0.22620438  1
  Zr  Zr651  1  0.24020924  0.76557906  0.22722811  1
  Zr  Zr652  1  0.50164066  0.50161839  0.26688995  1
  Zr  Zr653  1  0.00434079  0.49808929  0.26762433  1
  Zr  Zr654  1  0.00531347  0.00415833  0.27019754  1
  Zr  Zr655  1  0.48517053  1.00483845  0.27023901  1
  Zr  Zr656  1  0.25503633  0.73250693  0.30825303  1
  Zr  Zr657  1  0.24853884  0.26992587  0.31018949  1
  Zr  Zr658  1  0.74579907  0.75548736  0.30777399  1
  Zr  Zr659  1  0.75256293  0.23614632  0.30817251  1
  Zr  Zr660  1  0.02081231  0.98662474  0.35059832  1
  Zr  Zr661  1  0.48423633  1.00519456  0.34990013  1
  Zr  Zr662  1  0.51075441  0.47024724  0.35026177  1
  Zr  Zr663  1  0.97498502  0.49678349  0.34831947  1
  O  O664  1  0.82812765  0.99568805  0.18145329  1
  O  O665  1  0.64253815  0.08620569  0.18218363  1
  O  O666  1  0.13117569  0.39361122  0.17775823  1
  O  O667  1  0.32033448  0.48577791  0.18049226  1
  O  O668  1  0.36142931  0.97199864  0.19487682  1
  O  O669  1  0.12413144  0.04312727  0.18555401  1
  O  O670  1  0.66319753  0.46164808  0.19614658  1
  O  O671  1  0.88949332  0.56298733  0.19483846  1
  O  O672  1  0.47273143  0.15156844  0.20193771  1
  O  O673  1  -0.00094147  0.86713599  0.19517014  1
  O  O674  1  0.96886023  0.35848489  0.19698489  1
  O  O675  1  0.51678473  0.67868330  0.19564587  1
  O  O676  1  0.78004521  0.20111998  0.20450698  1
  O  O677  1  0.72686321  0.81678358  0.20298068  1
  O  O678  1  0.27790327  0.24338445  0.19789423  1
  O  O679  1  0.21231792  0.70652579  0.20217290  1
  O  O680  1  0.93685463  0.03063066  0.21415107  1
  O  O681  1  0.57955206  0.98946855  0.21623840  1
  O  O682  1  0.07646186  0.53307587  0.21350613  1
  O  O683  1  0.44115735  0.49117777  0.21136106  1
  O  O684  1  0.09155103  0.22659352  0.21905088  1
  O  O685  1  0.38203193  0.81330301  0.22006872  1
  O  O686  1  0.61309429  0.28944148  0.22178751  1
  O  O687  1  0.88963780  0.72559895  0.22069031  1
  O  O688  1  0.25976643  0.08878020  0.22287359  1
  O  O689  1  0.17835463  0.89324459  0.21806446  1
  O  O690  1  0.82108002  0.39490110  0.22613252  1
  O  O691  1  0.67853788  0.62738866  0.22370203  1
  O  O692  1  0.21134812  0.38584435  0.22662112  1
  O  O693  1  0.31003776  0.63118171  0.23161130  1
  O  O694  1  0.70549795  0.11924592  0.23656906  1
  O  O695  1  0.78796897  0.90075854  0.23471893  1
  O  O696  1  0.39091964  0.27224719  0.23414109  1
  O  O697  1  0.09848786  0.73239142  0.23839807  1
  O  O698  1  0.89594592  0.20799984  0.23848570  1
  O  O699  1  0.59761238  0.80438161  0.23596658  1
  O  O700  1  0.95193149  0.54144354  0.24299273  1
  O  O701  1  0.55370325  0.47852390  0.24110658  1
  O  O702  1  0.06536085  0.01331584  0.24526848  1
  O  O703  1  0.42639922  0.99972108  0.24498459  1
  O  O704  1  0.72205972  0.32136770  0.25550914  1
  O  O705  1  0.78085447  0.69063563  0.25344392  1
  O  O706  1  0.22937406  0.19717894  0.25314029  1
  O  O707  1  0.25587374  0.83412685  0.25330363  1
  O  O708  1  0.02638193  0.35678733  0.25982068  1
  O  O709  1  0.47991826  0.65127029  0.26209771  1
  O  O710  1  0.52671987  0.14974270  0.26519058  1
  O  O711  1  0.96983770  0.85436329  0.26507322  1
  O  O712  1  0.35548825  0.45457112  0.25981235  1
  O  O713  1  0.15112112  0.53588103  0.26048757  1
  O  O714  1  0.63188423  0.96532279  0.26543225  1
  O  O715  1  0.85775133  0.02826202  0.26616447  1
  O  O716  1  0.86368338  0.45000390  0.27555550  1
  O  O717  1  0.65146316  0.52798248  0.27193721  1
  O  O718  1  0.14620197  0.95794035  0.28018155  1
  O  O719  1  0.34149429  0.04396229  0.27947342  1
  O  O720  1  0.96103391  0.64112820  0.27718213  1
  O  O721  1  0.52490175  0.35623014  0.27444840  1
  O  O722  1  0.46545517  0.85560262  0.27733445  1
  O  O723  1  0.02891949  0.14727464  0.27804935  1
  O  O724  1  0.28047763  0.68921295  0.28232769  1
  O  O725  1  0.22650953  0.32004113  0.28484648  1
  O  O726  1  0.78127773  0.82441308  0.28417637  1
  O  O727  1  0.71571185  0.17227828  0.28366521  1
  O  O728  1  0.44763126  0.52336726  0.29350918  1
  O  O729  1  0.06508644  0.48688063  0.29417801  1
  O  O730  1  0.53797587  0.02386796  0.29718968  1
  O  O731  1  0.95517863  0.97548231  0.29760832  1
  O  O732  1  0.60469017  0.71556449  0.29855138  1
  O  O733  1  0.90285761  0.27994413  0.30230563  1
  O  O734  1  0.10747586  0.76693351  0.30321037  1
  O  O735  1  0.38915591  0.23367516  0.30315843  1
  O  O736  1  0.78483361  0.60943259  0.30345769  1
  O  O737  1  0.71314355  0.38403101  0.30468003  1
  O  O738  1  0.31115762  0.87722515  0.30918235  1
  O  O739  1  0.18655205  0.12766992  0.31138205  1
  O  O740  1  0.68934568  0.88388171  0.31641875  1
  O  O741  1  0.80455549  0.09871232  0.31512750  1
  O  O742  1  0.21126411  0.59597650  0.31449981  1
  O  O743  1  0.28856615  0.40908889  0.31705745  1
  O  O744  1  0.89353611  0.78351840  0.31642894  1
  O  O745  1  0.60720997  0.21181203  0.31566373  1
  O  O746  1  0.40518634  0.70645813  0.31582622  1
  O  O747  1  0.10321430  0.30409739  0.32097707  1
  O  O748  1  0.42164848  0.05146355  0.32653488  1
  O  O749  1  0.08188271  0.94682453  0.32664853  1
  O  O750  1  0.56635021  0.51058260  0.32537754  1
  O  O751  1  0.91712649  0.46873522  0.32370540  1
  O  O752  1  0.22597358  0.75973718  0.33658544  1
  O  O753  1  0.28341853  0.24034123  0.33943233  1
  O  O754  1  0.72946854  0.69926876  0.33473140  1
  O  O755  1  0.78363768  0.27143133  0.33471652  1
  O  O756  1  0.51201967  0.85220812  0.34234825  1
  O  O757  1  0.98231205  0.12749986  0.34173010  1
  O  O758  1  0.00532262  0.64588844  0.34090808  1
  O  O759  1  0.48221745  0.33239629  0.33681089  1
  O  O760  1  0.87281872  0.94343088  0.34481738  1
  O  O761  1  0.63113463  0.03964583  0.34247917  1
  O  O762  1  0.12943165  0.49520772  0.34892463  1
  O  O763  1  0.38175047  0.56717733  0.34612412  1
  O  O764  1  0.34587528  0.95033804  0.35683543  1
  O  O765  1  0.15809302  0.06140524  0.35562384  1
  O  O766  1  0.64374234  0.39692773  0.35414227  1
  O  O767  1  0.83409866  0.53296050  0.35674203  1
  O  O768  1  0.41637602  0.08056200  0.16866804  1
  O  O769  1  0.55434109  0.51627203  0.16576470  1
  O  O770  1  0.90620518  0.46069871  0.16276226  1
  O  O771  1  0.24719064  0.83951313  0.17399322  1
  O  O772  1  0.71204982  0.65708713  0.17815837  1
  O  O773  1  0.75860718  0.32169794  0.17222104  1
  O  O774  1  0.54053832  0.88480411  0.18428693  1
  O  O775  1  0.94981512  0.15800039  0.18478867  1
  O  O776  1  0.09816948  0.59320327  0.17634433  1
  O  O777  1  0.47504111  0.32920651  0.18408969  1
  O  O778  1  0.45669835  0.13936724  0.35959755  1
  O  O779  1  0.04969410  0.84108214  0.35794082  1
  O  O780  1  0.96530495  0.35138284  0.35462834  1
  O  O781  1  0.58737954  0.57605453  0.36233249  1
  O  O782  1  0.78954100  0.14945409  0.36474421  1
  O  O783  1  0.70705502  0.82265398  0.36305444  1
  O  O784  1  0.21543388  0.68188568  0.37175588  1
  O  O785  1  0.98353486  0.02188848  0.37649778  1
  O  O786  1  0.54896432  0.97025371  0.37518248  1
  O  O787  1  0.39108896  0.40462312  0.36495638  1
