data_image0
_chemical_formula_structural       Li660La32Zr20O130
_chemical_formula_sum              "Li660 La32 Zr20 O130"
_cell_length_a       13.81862379
_cell_length_b       14.2742823
_cell_length_c       78.81468225999998
_cell_angle_alpha    89.40635647999999
_cell_angle_beta     90.16766351000001
_cell_angle_gamma    90.14932171

_space_group_name_H-M_alt    "P 1"
_space_group_IT_number       1

loop_
  _space_group_symop_operation_xyz
  'x, y, z'

loop_
  _atom_site_type_symbol
  _atom_site_label
  _atom_site_symmetry_multiplicity
  _atom_site_fract_x
  _atom_site_fract_y
  _atom_site_fract_z
  _atom_site_occupancy
  Li  Li1       1.0  0.9809607544348363  0.868875786391952  0.15492704764409373  1.0000
  Li  Li2       1.0  0.587522985746196  0.04603438025335265  0.1584497075845226  1.0000
  Li  Li3       1.0  0.03297989551729753  0.4808324319408644  0.1429330684512544  1.0000
  Li  Li4       1.0  0.23649586611488876  0.6404050768086705  0.14345480557694784  1.0000
  Li  Li5       1.0  0.5819209373707772  0.6780960572325696  0.16340185440714886  1.0000
  Li  Li6       1.0  0.850413376094472  0.35324425379813457  0.1559086798784749  1.0000
  Li  Li7       1.0  0.16498760605777307  0.8290205365386043  0.14821884467426183  1.0000
  Li  Li8       1.0  0.4201011674609768  0.14908694639556935  0.16777132869309408  1.0000
  Li  Li9       1.0  0.6398205367541765  0.7775869340966844  0.17868126065018758  1.0000
  Li  Li10      1.0  0.7542485548354688  0.9057261805982323  0.15811996642693574  1.0000
  Li  Li11      1.0  0.09665731504274468  0.6428278555345175  0.15973730296090896  1.0000
  Li  Li12      1.0  0.21905276781997543  0.48494949979961005  0.16101899830933888  1.0000
  Li  Li13      1.0  0.8317116803993903  0.17667101020121312  0.17283429049979904  1.0000
  Li  Li14      1.0  0.6184404360844451  0.6131634630697814  0.19479123006231083  1.0000
  Li  Li15      1.0  0.33544816157884766  0.2861900077932323  0.17163133382259824  1.0000
  Li  Li16      1.0  0.10620108314260734  0.7891192353553423  0.17658140211375006  1.0000
  Li  Li17      1.0  0.3192061223280317  0.1636729136967884  0.19253640307896408  1.0000
  Li  Li18      1.0  0.15137863321486036  0.8825725612447849  0.19793677315529382  1.0000
  Li  Li19      1.0  0.8259894081508887  0.323820246391576  0.19064719704246547  1.0000
  Li  Li20      1.0  0.7430299472692256  0.48114254139205914  0.20343596895313104  1.0000
  Li  Li21      1.0  0.41379279165268606  0.31363496630508547  0.2013482294296362  1.0000
  Li  Li22      1.0  0.09856084019992783  0.6527255579407351  0.19825455400540062  1.0000
  Li  Li23      1.0  0.9023120590436478  0.12834974974017618  0.19920628984484984  1.0000
  Li  Li24      1.0  0.515510664315725  0.8309828261579564  0.217729975489264  1.0000
  Li  Li25      1.0  0.35869311933563847  0.9179689367773476  0.20722343960830364  1.0000
  Li  Li26      1.0  0.12247922464686707  0.056640362390695705  0.20986464156761014  1.0000
  Li  Li27      1.0  0.5715827175684173  0.4459713031979828  0.21323105465760436  1.0000
  Li  Li28      1.0  0.9223048030982767  0.5736469172209984  0.2118917320527831  1.0000
  Li  Li29      1.0  0.41111710418002934  0.4062967855543453  0.22972853791039177  1.0000
  Li  Li30      1.0  0.1326647890948324  0.5896956175263136  0.23267800001453778  1.0000
  Li  Li31      1.0  0.6848368154849009  0.9080090264525117  0.2392000326089539  1.0000
  Li  Li32      1.0  0.8337482990054583  0.07477387611377616  0.2318835698845398  1.0000
  Li  Li33      1.0  0.014715319210032505  0.1476284219073625  0.2278253254675474  1.0000
  Li  Li34      1.0  0.38843208688835795  0.8507394918257524  0.24160148590323258  1.0000
  Li  Li35      1.0  0.558924861910288  0.3215210357158606  0.23772787164353928  1.0000
  Li  Li36      1.0  0.9645649304384654  0.6639827363845263  0.24091304128809884  1.0000
  Li  Li37      1.0  0.13626187736408515  0.37745399555912146  0.24974274264767324  1.0000
  Li  Li38      1.0  0.25415901553775283  0.4886063200658722  0.23814546526456018  1.0000
  Li  Li39      1.0  0.6552279206270178  0.10547522178254166  0.24737799913601438  1.0000
  Li  Li40      1.0  0.8396698333522918  0.8848840405193451  0.2521807578950844  1.0000
  Li  Li41      1.0  0.3185684897940338  0.6920180986001907  0.25522641642597105  1.0000
  Li  Li42      1.0  0.10682158853506511  0.23616724676563886  0.25831347003050437  1.0000
  Li  Li43      1.0  0.82302334259168  0.7063452837496179  0.26399330315071334  1.0000
  Li  Li44      1.0  0.6296986810834456  0.24895021757175576  0.2660427846823219  1.0000
  Li  Li45      1.0  0.759567338480034  0.5674308821276889  0.2720542978915637  1.0000
  Li  Li46      1.0  0.6615851570041676  0.41963782332074184  0.27348115293364644  1.0000
  Li  Li47      1.0  0.28797156227920845  0.8932396428826275  0.27213896853109754  1.0000
  Li  Li48      1.0  0.18566485952550013  0.09315271390138206  0.2727979834782834  1.0000
  Li  Li49      1.0  0.9133048897255741  0.8490021344237945  0.28030893702818005  1.0000
  Li  Li50      1.0  0.5648944693799296  0.1382664876729251  0.28389286673585645  1.0000
  Li  Li51      1.0  0.3821945758339447  0.64524080312949  0.28866043551643106  1.0000
  Li  Li52      1.0  0.04531882745053845  0.33670510530713166  0.2829997385552833  1.0000
  Li  Li53      1.0  0.8420441200163606  0.4099676181403719  0.28740888321286995  1.0000
  Li  Li54      1.0  0.554247030911707  0.5951551188992787  0.29133544611886897  1.0000
  Li  Li55      1.0  0.058096900194101665  0.9280483653823978  0.2890455715447565  1.0000
  Li  Li56      1.0  0.3630006910954024  0.0975360325169999  0.28804055642418563  1.0000
  Li  Li57      1.0  0.8523569077998827  0.9501966003419718  0.30943486234589285  1.0000
  Li  Li58      1.0  0.48446406961141336  0.09239679441474745  0.308755494144514  1.0000
  Li  Li59      1.0  0.1312993305763304  0.4612796670878275  0.3092002170625169  1.0000
  Li  Li60      1.0  0.30427744833163595  0.5175514738503653  0.31204005476986646  1.0000
  Li  Li61      1.0  0.5585608003062609  0.6763876198946187  0.31657341900301594  1.0000
  Li  Li62      1.0  0.9568030685073488  0.36321948778867796  0.30860519463012775  1.0000
  Li  Li63      1.0  0.026088732072425895  0.8295685994662234  0.31198860972247533  1.0000
  Li  Li64      1.0  0.35684257932781444  0.18283972185690558  0.31795523345024995  1.0000
  Li  Li65      1.0  0.611849659927523  0.9981818768394035  0.3163572742657418  1.0000
  Li  Li66      1.0  0.8256025937057682  0.10570309730250117  0.3311451100942142  1.0000
  Li  Li67      1.0  0.12992447331682724  0.5913168362562458  0.326812408354581  1.0000
  Li  Li68      1.0  0.30874115508369093  0.34168015811168256  0.32800167617759074  1.0000
  Li  Li69      1.0  0.8704692915824723  0.24175614591717662  0.3426169858987233  1.0000
  Li  Li70      1.0  0.6580206358516697  0.8461738292491883  0.32752151960217646  1.0000
  Li  Li71      1.0  0.27470888011338357  0.0910515011271301  0.3437076914242744  1.0000
  Li  Li72      1.0  0.10125434551843368  0.7350583960341146  0.3358859144101835  1.0000
  Li  Li73      1.0  0.31313818856797326  0.9316881952589019  0.36702698828225033  1.0000
  Li  Li74      1.0  0.20352231705748944  0.8711359214687999  0.34413452824538393  1.0000
  Li  Li75      1.0  0.7788793065167803  0.3872457540807964  0.3420113351046268  1.0000
  Li  Li76      1.0  0.6599403993826093  0.6584715315526151  0.3436346620892803  1.0000
  Li  Li77      1.0  0.4005336747002612  0.34144444982887684  0.3541831132214202  1.0000
  Li  Li78      1.0  0.0452069345248949  0.6356339831903735  0.3554127011896157  1.0000
  Li  Li79      1.0  0.9116552620000345  0.09381237403559924  0.3682212331707712  1.0000
  Li  Li80      1.0  0.5771382362885293  0.8150098911325038  0.34899726917318663  1.0000
  Li  Li81      1.0  0.4504979555761619  0.8416081094515051  0.3697257687265112  1.0000
  Li  Li82      1.0  0.03881203989779637  0.8647445082350822  0.36489047602682584  1.0000
  Li  Li83      1.0  0.5917114524048532  0.41636705645241223  0.3686495316912922  1.0000
  Li  Li84      1.0  0.8271093220236683  0.5622677677063734  0.36687916606927484  1.0000
  Li  Li85      1.0  0.15065650045310708  0.03879979244532475  0.41414684220032455  1.0000
  Li  Li86      1.0  0.18001555614036144  0.9788537670416583  0.44946318553990683  1.0000
  Li  Li87      1.0  0.2711569506149176  0.19690154472870292  0.5077421318104903  1.0000
  Li  Li88      1.0  0.1600624755902001  0.8604611652346547  0.5437443932931085  1.0000
  Li  Li89      1.0  0.27401160785526607  0.9583587402170144  0.5999683726872801  1.0000
  Li  Li90      1.0  0.24285416308872734  0.08462139883103122  0.6301609821450826  1.0000
  Li  Li91      1.0  0.029604937368063258  0.9663659678746436  0.6676013299800981  1.0000
  Li  Li92      1.0  0.029718960790164055  0.9492878580701323  0.7084977025783653  1.0000
  Li  Li93      1.0  0.11791572868607343  0.15886532133191983  0.7564619605438622  1.0000
  Li  Li94      1.0  0.1890210781342309  0.8643184741929896  0.39281841344269003  1.0000
  Li  Li95      1.0  0.03317019116724351  0.1767541956955017  0.42113193068697774  1.0000
  Li  Li96      1.0  0.1832811730022767  0.17110645819918546  0.47097486123745064  1.0000
  Li  Li97      1.0  0.22645245633756356  0.3776513849326904  0.49844944607266156  1.0000
  Li  Li98      1.0  0.08650487115590888  0.03718481740278554  0.5339282655202106  1.0000
  Li  Li99      1.0  0.2507024391696895  0.14014657851420023  0.5842985028993396  1.0000
  Li  Li100     1.0  0.17176403125468612  0.2420502542063777  0.6289915521569778  1.0000
  Li  Li101     1.0  0.3066165288411061  0.18757924217613275  0.6979071982088644  1.0000
  Li  Li102     1.0  0.11131821064142948  0.10884960090663252  0.6927757504721191  1.0000
  Li  Li103     1.0  0.2093568452313694  0.24718607253378982  0.798744026388392  1.0000
  Li  Li104     1.0  0.13102712157427143  0.9939413327711867  0.3634644715301251  1.0000
  Li  Li105     1.0  0.08086310457468493  0.3183796372002229  0.4471949403601365  1.0000
  Li  Li106     1.0  0.051234832243998656  0.3340239855682586  0.48599389511881874  1.0000
  Li  Li107     1.0  0.2431540349484917  0.5585200475105423  0.48641807542873056  1.0000
  Li  Li108     1.0  0.2030950567515457  0.18934156825459628  0.544027126015654  1.0000
  Li  Li109     1.0  0.20768153821681906  0.31727194705314843  0.5704336043404475  1.0000
  Li  Li110     1.0  0.180434904784946  0.3571490114025361  0.6048304459855719  1.0000
  Li  Li111     1.0  0.16297154845684317  0.30376042297734956  0.686723522663707  1.0000
  Li  Li112     1.0  0.9941925828236048  0.18404039769610409  0.7232585321346702  1.0000
  Li  Li113     1.0  0.039305406124098365  0.37141904779449764  0.7416580921981462  1.0000
  Li  Li114     1.0  0.11053886792253079  0.15751282247452167  0.38502885512971474  1.0000
  Li  Li115     1.0  0.9356952548925201  0.47946562179929286  0.43784510208299793  1.0000
  Li  Li116     1.0  0.060317123046016594  0.49931161042158434  0.46593291820221755  1.0000
  Li  Li117     1.0  0.08459848745500816  0.4843407752810209  0.5094647640135987  1.0000
  Li  Li118     1.0  0.010412655715278461  0.3477947460031629  0.5644387027084222  1.0000
  Li  Li119     1.0  0.1847864889809594  0.4925746474190703  0.5803594066530802  1.0000
  Li  Li120     1.0  0.9710213621052975  0.4991518632563573  0.637920059493204  1.0000
  Li  Li121     1.0  0.13388065144110767  0.4702152384243269  0.7096198857702636  1.0000
  Li  Li122     1.0  0.019476454963194056  0.6056477547885335  0.7249981431367127  1.0000
  Li  Li123     1.0  0.05750756531377495  0.6969982394600027  0.7965960521119595  1.0000
  Li  Li124     1.0  0.9840557955268739  0.4143682143252505  0.4118955829626352  1.0000
  Li  Li125     1.0  0.004459190199976648  0.6211770003346089  0.42540677851811837  1.0000
  Li  Li126     1.0  0.009395581178063238  0.6758198137167553  0.4905755854201556  1.0000
  Li  Li127     1.0  0.17789543566964  0.6988613514048566  0.5153535374069705  1.0000
  Li  Li128     1.0  0.021729127178047578  0.6553805563588107  0.53318494081063  1.0000
  Li  Li129     1.0  0.11974504431236073  0.5462888529755083  0.6189808035968128  1.0000
  Li  Li130     1.0  0.007834329107185125  0.6803528170310862  0.6248271308963802  1.0000
  Li  Li131     1.0  0.13479366499257317  0.668122829346681  0.6952123349847694  1.0000
  Li  Li132     1.0  0.14356071447355714  0.7561483403792547  0.7702223212536581  1.0000
  Li  Li133     1.0  0.2622781819423493  0.7898834810775602  0.8151684419335153  1.0000
  Li  Li134     1.0  0.982136191225833  0.5446584666303144  0.38601551263044787  1.0000
  Li  Li135     1.0  0.06528845168856431  0.7854846792504236  0.41677600132766346  1.0000
  Li  Li136     1.0  0.14877740490536182  0.8321982445368482  0.4769551434521475  1.0000
  Li  Li137     1.0  0.2564225907797924  0.0011379709847638697  0.5206906653270614  1.0000
  Li  Li138     1.0  0.007250277981756177  0.7476927175179243  0.5602973209319512  1.0000
  Li  Li139     1.0  0.15553947085237335  0.806127118923631  0.5871823320287225  1.0000
  Li  Li140     1.0  0.10336259914372745  0.8983908951753891  0.6148025579623371  1.0000
  Li  Li141     1.0  0.1548015461858133  0.8632657542345218  0.6911386237810786  1.0000
  Li  Li142     1.0  0.1317284292559156  0.8597253708869614  0.732071919403592  1.0000
  Li  Li143     1.0  0.05961844904230326  0.8735848102891499  0.7968527886813979  1.0000
  Li  Li144     1.0  0.9425730227070661  0.727091484143102  0.39150111272411675  1.0000
  Li  Li145     1.0  0.24101039254861142  0.8187335515487165  0.4334584659534119  1.0000
  Li  Li146     1.0  0.3519747657320123  0.031123256471831652  0.46564205000765296  1.0000
  Li  Li147     1.0  0.42056372362845273  0.9238623003853345  0.5380684200333044  1.0000
  Li  Li148     1.0  0.3070417274933604  0.8399749460762526  0.567090425905034  1.0000
  Li  Li149     1.0  0.29143204053773314  0.9067620601613238  0.6343267354361771  1.0000
  Li  Li150     1.0  0.2059730307691838  0.01864637273533458  0.6668520373345338  1.0000
  Li  Li151     1.0  0.2795934137160284  0.004890021144962287  0.7024190137645362  1.0000
  Li  Li152     1.0  0.09369149983344156  0.9621203520047867  0.7662950602183263  1.0000
  Li  Li153     1.0  0.2983629198380329  0.06684888470035287  0.7761279728058679  1.0000
  Li  Li154     1.0  0.290598533372582  0.03048448327915159  0.3893268862887405  1.0000
  Li  Li155     1.0  0.21049391876416357  0.16549803359896706  0.4381767320458394  1.0000
  Li  Li156     1.0  0.34395600133411736  0.25489276084189727  0.4709849846062618  1.0000
  Li  Li157     1.0  0.4015092363462393  0.13283859960091032  0.5297364598870437  1.0000
  Li  Li158     1.0  0.2662061558584467  0.016907392283672718  0.5573643668723325  1.0000
  Li  Li159     1.0  0.366663459259191  0.15524505595143756  0.6103257972037395  1.0000
  Li  Li160     1.0  0.2858832422558201  0.22429800909259726  0.6639761304139303  1.0000
  Li  Li161     1.0  0.4691527210905012  0.269881582023508  0.6851168275895136  1.0000
  Li  Li162     1.0  0.16640426710955045  0.07552652713500257  0.7252482385310685  1.0000
  Li  Li163     1.0  0.32869483819932716  0.15468398590257976  0.7413884483584984  1.0000
  Li  Li164     1.0  0.3771828637124937  0.15734580133365916  0.37093575726731565  1.0000
  Li  Li165     1.0  0.2985657332626842  0.3568855929571933  0.43360510241567707  1.0000
  Li  Li166     1.0  0.2228668332191151  0.3834554308600496  0.4627167708987122  1.0000
  Li  Li167     1.0  0.43964185741496564  0.29109774536263394  0.5076877763658985  1.0000
  Li  Li168     1.0  0.37208423409140745  0.20241783442258943  0.5636416916482804  1.0000
  Li  Li169     1.0  0.3673325877192277  0.31805470096019156  0.5924839327579551  1.0000
  Li  Li170     1.0  0.3376084692056517  0.3540608614288121  0.6296094461199105  1.0000
  Li  Li171     1.0  0.3430080840324809  0.3904292252151233  0.7034749685315661  1.0000
  Li  Li172     1.0  0.1944275629672693  0.28352016673181585  0.7225397299011973  1.0000
  Li  Li173     1.0  0.35068685720848364  0.3871615068859666  0.7828104713639032  1.0000
  Li  Li174     1.0  0.23487970097318572  0.31871122717456285  0.3774829225007035  1.0000
  Li  Li175     1.0  0.13237668217283516  0.4923246540241518  0.43102350205679396  1.0000
  Li  Li176     1.0  0.3020325182668225  0.5476763333394242  0.45041026439983545  1.0000
  Li  Li177     1.0  0.27863243557260486  0.5502775603451021  0.5280185632218851  1.0000
  Li  Li178     1.0  0.12791542776339673  0.45733097725321037  0.5446808272600686  1.0000
  Li  Li179     1.0  0.32672035279957173  0.49022587029327963  0.6084911955416787  1.0000
  Li  Li180     1.0  0.08834884542943959  0.6212215558765539  0.6624399859011394  1.0000
  Li  Li181     1.0  0.2462514134126638  0.48733861839951764  0.680498261064561  1.0000
  Li  Li182     1.0  0.2299197529634774  0.46060076321094534  0.738349445211094  1.0000
  Li  Li183     1.0  0.19902595979341456  0.6705874766306756  0.7340551751026796  1.0000
  Li  Li184     1.0  0.12686455662633123  0.3061569395869688  0.4087734250479832  1.0000
  Li  Li185     1.0  0.1303076740238804  0.6363909710717953  0.39270461942619855  1.0000
  Li  Li186     1.0  0.3094159434532993  0.7331810672808876  0.4646004555369678  1.0000
  Li  Li187     1.0  0.3680595754573723  0.6669022640879863  0.5009895759626152  1.0000
  Li  Li188     1.0  0.3626437786149407  0.45882729614157014  0.5603633378509448  1.0000
  Li  Li189     1.0  0.2858886853962586  0.6696875588329729  0.5968232365312833  1.0000
  Li  Li190     1.0  0.2705043566402459  0.6938486411302544  0.6770256877318599  1.0000
  Li  Li191     1.0  0.3118814670430833  0.6158434590058126  0.7119619177850969  1.0000
  Li  Li192     1.0  0.2502333492120087  0.8752678754625249  0.7839227074606353  1.0000
  Li  Li193     1.0  0.3310821915921063  0.6935713629386802  0.7872629514362781  1.0000
  Li  Li194     1.0  0.19885488941103777  0.7524005589440672  0.3657333047874046  1.0000
  Li  Li195     1.0  0.1158341921261501  0.7048716815351298  0.45305610375084626  1.0000
  Li  Li196     1.0  0.33354207907013544  0.8699138352925694  0.49884178456650274  1.0000
  Li  Li197     1.0  0.327375616820411  0.7600504902658213  0.5290491707419765  1.0000
  Li  Li198     1.0  0.1763398576975796  0.6577757788078966  0.5577685982413243  1.0000
  Li  Li199     1.0  0.20926240015199918  0.7293689004554527  0.6247152131692757  1.0000
  Li  Li200     1.0  0.15191347700889501  0.7953682520300134  0.6528022771526668  1.0000
  Li  Li201     1.0  0.2831312394118008  0.7974469557182131  0.7127683565442997  1.0000
  Li  Li202     1.0  0.2697894757193221  0.9574224938973072  0.7441755996263079  1.0000
  Li  Li203     1.0  0.37720873358077994  0.044438594047973234  0.8074323591712981  1.0000
  Li  Li204     1.0  0.38683239331899755  0.8341039064310859  0.40991914183933953  1.0000
  Li  Li205     1.0  0.3667672488136115  0.03492672949577413  0.4290108745960613  1.0000
  Li  Li206     1.0  0.3864439141447191  0.08369402507730495  0.49479271430823313  1.0000
  Li  Li207     1.0  0.5635670727954332  0.014851000417852204  0.5185056613739069  1.0000
  Li  Li208     1.0  0.5077621613912723  0.7618336923579042  0.5527173315481854  1.0000
  Li  Li209     1.0  0.4978018566090488  0.9765066280679746  0.6133258915639335  1.0000
  Li  Li210     1.0  0.41605807943733314  0.087585282398716  0.645122325562847  1.0000
  Li  Li211     1.0  0.42142969970526756  0.08094682097495531  0.6831062815640769  1.0000
  Li  Li212     1.0  0.45807839201824185  0.06426149245576719  0.7194835509223338  1.0000
  Li  Li213     1.0  0.5593954149269686  0.14598075421285953  0.7469957374126387  1.0000
  Li  Li214     1.0  0.5535284079079436  0.932459417125339  0.4238648596716255  1.0000
  Li  Li215     1.0  0.27195362822037317  0.19514372116377285  0.4055303508600055  1.0000
  Li  Li216     1.0  0.5171627104072589  0.08871135909120685  0.45992781323139365  1.0000
  Li  Li217     1.0  0.7426071629841542  0.16028230755235762  0.5168942151343225  1.0000
  Li  Li218     1.0  0.397767194083659  0.9847752724409821  0.5756369480517779  1.0000
  Li  Li219     1.0  0.5021882053635806  0.3157719339995487  0.6132956816847642  1.0000
  Li  Li220     1.0  0.48647994591676197  0.2824811651652244  0.6493477279024266  1.0000
  Li  Li221     1.0  0.5826500088929654  0.10048599908758082  0.6632918443929345  1.0000
  Li  Li222     1.0  0.45646280023138325  0.261050667039308  0.7224639298801051  1.0000
  Li  Li223     1.0  0.514259060471059  0.32130868188280104  0.7654099970198822  1.0000
  Li  Li224     1.0  0.5078158515167032  0.03681259411347263  0.37567672069917013  1.0000
  Li  Li225     1.0  0.40694434006332303  0.21175937197818878  0.43662596594823627  1.0000
  Li  Li226     1.0  0.5752276045742716  0.17351898025854362  0.4970532599963157  1.0000
  Li  Li227     1.0  0.6653455783202125  0.37553325572022855  0.5547257237309748  1.0000
  Li  Li228     1.0  0.579086110668977  0.2116116608377502  0.5336250035842208  1.0000
  Li  Li229     1.0  0.5249222202313806  0.2949308952762688  0.5653765661720319  1.0000
  Li  Li230     1.0  0.48396145773679006  0.46835317466010284  0.637041573581871  1.0000
  Li  Li231     1.0  0.6221343332443167  0.3948555232172028  0.6992192571361763  1.0000
  Li  Li232     1.0  0.3167418178049094  0.3158690626183339  0.7497521826666169  1.0000
  Li  Li233     1.0  0.3849538005244463  0.5257069339301845  0.8069440498997441  1.0000
  Li  Li234     1.0  0.40496217723397027  0.3186305019609968  0.4032154348882794  1.0000
  Li  Li235     1.0  0.21934547981606295  0.46701931904566624  0.40097354449916933  1.0000
  Li  Li236     1.0  0.4097274089022316  0.41443877718019745  0.4746689328125515  1.0000
  Li  Li237     1.0  0.4167978217725168  0.48635889786691  0.5098399933065467  1.0000
  Li  Li238     1.0  0.3041277529628497  0.33860588959555904  0.5359594860313946  1.0000
  Li  Li239     1.0  0.5058094713363589  0.48522428758228936  0.5928066907969008  1.0000
  Li  Li240     1.0  0.27887304913144045  0.585171278909549  0.6450310773130369  1.0000
  Li  Li241     1.0  0.3988380214931149  0.4326074401693599  0.6651459842642681  1.0000
  Li  Li242     1.0  0.48503224161491537  0.5007188852402007  0.6933917138619405  1.0000
  Li  Li243     1.0  0.373654518528342  0.6065250277212126  0.7477796440806544  1.0000
  Li  Li244     1.0  0.4160825313094715  0.46125093312731574  0.3862385162666981  1.0000
  Li  Li245     1.0  0.3753010599714233  0.5383971426791373  0.4179738612558056  1.0000
  Li  Li246     1.0  0.4519049734117285  0.5898285643974347  0.47176126055049755  1.0000
  Li  Li247     1.0  0.607670098288863  0.6021817644456785  0.49726104500580803  1.0000
  Li  Li248     1.0  0.4841492584004999  0.402792506858521  0.5354173710726761  1.0000
  Li  Li249     1.0  0.48868926433879567  0.7100904161511161  0.5852285156163738  1.0000
  Li  Li250     1.0  0.4002378807131984  0.7772956266103974  0.6420750663724997  1.0000
  Li  Li251     1.0  0.44265725117929766  0.6183243152739355  0.6626121035198083  1.0000
  Li  Li252     1.0  0.3145719095716304  0.8014729887554141  0.7576867552706361  1.0000
  Li  Li253     1.0  0.5066622363709885  0.7272503592116917  0.7704586166534767  1.0000
  Li  Li254     1.0  0.3439555029876092  0.684831056802332  0.39505364915035757  1.0000
  Li  Li255     1.0  0.21822759461593758  0.6489482719484699  0.4252702898455115  1.0000
  Li  Li256     1.0  0.4100478340560529  0.878737481031732  0.4496914357782833  1.0000
  Li  Li257     1.0  0.5229511172007835  0.8263349281488442  0.5142733547172916  1.0000
  Li  Li258     1.0  0.37970180350894417  0.6388618356866943  0.5603485087658712  1.0000
  Li  Li259     1.0  0.3901586024903416  0.806398068076744  0.6039788108596896  1.0000
  Li  Li260     1.0  0.36922814850265046  0.8761808604146981  0.6699762395921942  1.0000
  Li  Li261     1.0  0.45224728094475475  0.7176653830220747  0.6948870696866453  1.0000
  Li  Li262     1.0  0.4713059424696585  0.8085127652267801  0.7334742010500888  1.0000
  Li  Li263     1.0  0.45772059831313106  0.9701296258874966  0.7579957947487704  1.0000
  Li  Li264     1.0  0.5303695429837004  0.7151997581443401  0.4003424870589999  1.0000
  Li  Li265     1.0  0.6377204161991568  0.9251480228653206  0.45768044030965754  1.0000
  Li  Li266     1.0  0.5177719983275603  0.9567343740060759  0.4862355637558486  1.0000
  Li  Li267     1.0  0.742475791275525  0.045973620829503355  0.5401988759008981  1.0000
  Li  Li268     1.0  0.5651994369640013  0.8699273122127057  0.5814606217618626  1.0000
  Li  Li269     1.0  0.6799624301411006  0.013150530422921565  0.6238853769455915  1.0000
  Li  Li270     1.0  0.5716881041288107  0.15488774151837184  0.6262493799660409  1.0000
  Li  Li271     1.0  0.4477238021643509  0.8938411744097635  0.7020696603582727  1.0000
  Li  Li272     1.0  0.6324077435076467  0.9594219704672861  0.7358030048549946  1.0000
  Li  Li273     1.0  0.6345063992496691  0.2064171773411514  0.7930318253115294  1.0000
  Li  Li274     1.0  0.5954702672288655  0.8753462931411284  0.3899130642791949  1.0000
  Li  Li275     1.0  0.4718905041728922  0.09848559913911722  0.4092713700865007  1.0000
  Li  Li276     1.0  0.7046467751962323  0.13559026584484035  0.4697419198678495  1.0000
  Li  Li277     1.0  0.7427719232225433  0.2945643452912116  0.489454670399678  1.0000
  Li  Li278     1.0  0.5352928750393467  0.06818921685239535  0.5568035137509427  1.0000
  Li  Li279     1.0  0.5079754758343803  0.15113292503800344  0.5890960523306649  1.0000
  Li  Li280     1.0  0.6703979813297902  0.26727671202179626  0.673194220762929  1.0000
  Li  Li281     1.0  0.7392681105063136  0.1204827769015696  0.6836269496535017  1.0000
  Li  Li282     1.0  0.6040954877749962  0.1715206826570413  0.707004471988402  1.0000
  Li  Li283     1.0  0.550071891409299  0.3366339599523901  0.8060058331293632  1.0000
  Li  Li284     1.0  0.6915170007818905  0.06827027545244023  0.40025536835686343  1.0000
  Li  Li285     1.0  0.5941555193772823  0.24989011205225645  0.4307926555188229  1.0000
  Li  Li286     1.0  0.5491175315792336  0.27512159224191324  0.46670504538237895  1.0000
  Li  Li287     1.0  0.5964774078610153  0.3675318323435635  0.5090353213119159  1.0000
  Li  Li288     1.0  0.7020629340851414  0.20426430732979126  0.5579661746444043  1.0000
  Li  Li289     1.0  0.6879501205462034  0.3018239995906539  0.6265524539611939  1.0000
  Li  Li290     1.0  0.6134757154824264  0.43516395156201443  0.6637252952208667  1.0000
  Li  Li291     1.0  0.7917448730249736  0.23467331601867333  0.7056641194420512  1.0000
  Li  Li292     1.0  0.46828517758352023  0.4467048813781101  0.7322031922295432  1.0000
  Li  Li293     1.0  0.7316336167089466  0.32021509041459295  0.7622587255134945  1.0000
  Li  Li294     1.0  0.5825909351873858  0.24266348686801115  0.39027399527617784  1.0000
  Li  Li295     1.0  0.46932518274838475  0.39725965678523595  0.4396828251502491  1.0000
  Li  Li296     1.0  0.632986784684888  0.4489856626554727  0.48027898640676414  1.0000
  Li  Li297     1.0  0.6695750122229261  0.5266042435256202  0.5261391548113695  1.0000
  Li  Li298     1.0  0.6394699521256203  0.34044558074113823  0.5902969169398335  1.0000
  Li  Li299     1.0  0.6434022680830603  0.4753346084433128  0.6213926106833562  1.0000
  Li  Li300     1.0  0.4598761855955176  0.6263029321023831  0.6183975724062042  1.0000
  Li  Li301     1.0  0.7325678176523313  0.49698591134068937  0.7194497716661061  1.0000
  Li  Li302     1.0  0.6543727162823041  0.5172030806696979  0.7528991703087685  1.0000
  Li  Li303     1.0  0.6693804458981145  0.5363533523812444  0.8044963352024256  1.0000
  Li  Li304     1.0  0.5623492852296911  0.4162494333882096  0.4125205680631582  1.0000
  Li  Li305     1.0  0.5541708577353034  0.5845755649942256  0.4230986631642945  1.0000
  Li  Li306     1.0  0.49869036888425156  0.7704663488907669  0.4764394910552778  1.0000
  Li  Li307     1.0  0.6787875063033284  0.7062765864278302  0.5261217037750896  1.0000
  Li  Li308     1.0  0.5681903991010087  0.5541981468009747  0.5594319671647621  1.0000
  Li  Li309     1.0  0.6795346807125525  0.6599627045347762  0.6032935189668536  1.0000
  Li  Li310     1.0  0.5538647247077472  0.7850877776401117  0.6696580318755742  1.0000
  Li  Li311     1.0  0.6815798403786499  0.5866589259767051  0.6846271939904217  1.0000
  Li  Li312     1.0  0.5483762480561956  0.6269420667679763  0.7193440868554027  1.0000
  Li  Li313     1.0  0.6862121193168419  0.7979772077292729  0.8088334055968446  1.0000
  Li  Li314     1.0  0.49785345712609685  0.6091164327952048  0.36873350462303056  1.0000
  Li  Li315     1.0  0.41488179908230677  0.689939716543104  0.436711103696192  1.0000
  Li  Li316     1.0  0.6564373693798732  0.83474297399151  0.4924387561626779  1.0000
  Li  Li317     1.0  0.6499759817658097  0.8982988438815992  0.5501984639764531  1.0000
  Li  Li318     1.0  0.49908627390390353  0.6226900411939637  0.5254720213968663  1.0000
  Li  Li319     1.0  0.600059754716402  0.7842201898574355  0.6201251721718849  1.0000
  Li  Li320     1.0  0.5222527150306769  0.9148680803127646  0.6461218338507836  1.0000
  Li  Li321     1.0  0.6096066139224741  0.7804697493802637  0.7072925270208889  1.0000
  Li  Li322     1.0  0.646240886792227  0.7565467102753703  0.7433325411115776  1.0000
  Li  Li323     1.0  0.7731640299017837  0.016938345078623573  0.8097511044840078  1.0000
  Li  Li324     1.0  0.5923528220995644  0.7575637096738762  0.43670334173021225  1.0000
  Li  Li325     1.0  0.822591663468773  0.969583089006158  0.4703998647464247  1.0000
  Li  Li326     1.0  0.7252900238116823  0.9957688705138529  0.49940545588284607  1.0000
  Li  Li327     1.0  0.917637828401936  0.010712583436119234  0.5165903191878027  1.0000
  Li  Li328     1.0  0.7966147176977876  0.8620079249147279  0.5689406204353119  1.0000
  Li  Li329     1.0  0.8707560730791223  0.9977179199325122  0.6124304709396456  1.0000
  Li  Li330     1.0  0.7568885069111545  0.15697479316890456  0.646066629004438  1.0000
  Li  Li331     1.0  0.6582916844369552  0.9653931251284424  0.6989691578160423  1.0000
  Li  Li332     1.0  0.7273916577031395  0.09984149272327314  0.7722913704716652  1.0000
  Li  Li333     1.0  0.8680434214773328  0.1858317137929115  0.7943892717714154  1.0000
  Li  Li334     1.0  0.758915360933362  0.9346855364099387  0.4321914100396343  1.0000
  Li  Li335     1.0  0.6575960716055725  0.09158845546299868  0.4336509944675418  1.0000
  Li  Li336     1.0  0.8813912959965845  0.10549150500872762  0.48701798701769944  1.0000
  Li  Li337     1.0  0.921635862880674  0.17472063551589445  0.5403922076081589  1.0000
  Li  Li338     1.0  0.6715197852650961  0.024415881479258758  0.5798127566980982  1.0000
  Li  Li339     1.0  0.7237532816027823  0.14681367929851832  0.6045309249356224  1.0000
  Li  Li340     1.0  0.8755885495973151  0.3112042462980999  0.6589635129264043  1.0000
  Li  Li341     1.0  0.9080922054643706  0.13331990167246835  0.674477803590114  1.0000
  Li  Li342     1.0  0.764810722080822  0.1239761794325579  0.7377866173664185  1.0000
  Li  Li343     1.0  0.917651093947017  0.1809208417184863  0.7634728459883741  1.0000
  Li  Li344     1.0  0.8797858488043185  0.10971404229298949  0.4040357750315905  1.0000
  Li  Li345     1.0  0.738348573395429  0.2222178961656632  0.4083738800169928  1.0000
  Li  Li346     1.0  0.7257822469186357  0.30785099961166895  0.45334701495730584  1.0000
  Li  Li347     1.0  0.9240480016570642  0.2778796392369532  0.5098628420796528  1.0000
  Li  Li348     1.0  0.8703772407142557  0.17736257011848292  0.5876014994085046  1.0000
  Li  Li349     1.0  0.8156722818535279  0.33430346814299344  0.6093667891397847  1.0000
  Li  Li350     1.0  0.7751232267993904  0.44204889564152866  0.6400424226279527  1.0000
  Li  Li351     1.0  0.9470980523827968  0.3024655675829109  0.6905804208123272  1.0000
  Li  Li352     1.0  0.6425919890270513  0.33033665012176494  0.735185090620588  1.0000
  Li  Li353     1.0  0.7929595836255534  0.39372281706290696  0.7973402648805408  1.0000
  Li  Li354     1.0  0.7823454887145801  0.23575937534664929  0.3714990380242566  1.0000
  Li  Li355     1.0  0.6281839747445906  0.4629071280674752  0.4463094734067035  1.0000
  Li  Li356     1.0  0.795598821384218  0.5031500989415668  0.46211085297564425  1.0000
  Li  Li357     1.0  0.8102824511668835  0.44732275454290255  0.5068502798779995  1.0000
  Li  Li358     1.0  0.763765239114281  0.31654701627836557  0.5299457616545405  1.0000
  Li  Li359     1.0  0.7228071433227752  0.5111280725496075  0.585109711134729  1.0000
  Li  Li360     1.0  0.6527887502345027  0.6280513989946919  0.6445164931651586  1.0000
  Li  Li361     1.0  0.8282272837514675  0.4141974898762065  0.685613072967503  1.0000
  Li  Li362     1.0  0.8412517131246894  0.4616168289602565  0.7438191950997136  1.0000
  Li  Li363     1.0  0.830007830502812  0.5452262389770726  0.7786756642906235  1.0000
  Li  Li364     1.0  0.777575522969666  0.40278803817725645  0.39075846628763883  1.0000
  Li  Li365     1.0  0.6202407054143138  0.6267469202358376  0.46168364877889223  1.0000
  Li  Li366     1.0  0.7718340268418359  0.6322619699238946  0.48129184582347506  1.0000
  Li  Li367     1.0  0.8652600764870585  0.6268612094785677  0.5151378303991888  1.0000
  Li  Li368     1.0  0.7902569152714471  0.5679566784664135  0.552720024574762  1.0000
  Li  Li369     1.0  0.8572596525319803  0.6645086163599134  0.583865175560409  1.0000
  Li  Li370     1.0  0.7472121370430371  0.8094094096588101  0.6441673809229658  1.0000
  Li  Li371     1.0  0.8582527235913506  0.6426151835149888  0.6557896841326869  1.0000
  Li  Li372     1.0  0.7942941861556281  0.686018143226271  0.7167548197594801  1.0000
  Li  Li373     1.0  0.8269052435875722  0.6351996122209164  0.8101779701776648  1.0000
  Li  Li374     1.0  0.6489824533283621  0.5532432268468928  0.3913472950621274  1.0000
  Li  Li375     1.0  0.7574281433319154  0.7864335864272859  0.45731219888464825  1.0000
  Li  Li376     1.0  0.881036966119645  0.8085880863978487  0.488427137365235  1.0000
  Li  Li377     1.0  0.7933348191695135  0.8309416690433022  0.5200760874964621  1.0000
  Li  Li378     1.0  0.6839275483164986  0.7222693237270804  0.569482613482151  1.0000
  Li  Li379     1.0  0.7173894278298044  0.8756587117946079  0.5977248567318847  1.0000
  Li  Li380     1.0  0.7018076485565206  0.9622826784563026  0.6601587377448163  1.0000
  Li  Li381     1.0  0.7549716525956939  0.7697387310732409  0.6785947564899852  1.0000
  Li  Li382     1.0  0.8124538943795838  0.6556703574773276  0.7486014922849504  1.0000
  Li  Li383     1.0  0.7934402734407672  0.9035318583761828  0.7562731181937496  1.0000
  Li  Li384     1.0  0.7366882193119998  0.7557173281804695  0.37484482566995914  1.0000
  Li  Li385     1.0  0.9876225411133316  0.9789359797863021  0.424925578529852  1.0000
  Li  Li386     1.0  0.005531625900514925  0.9692643909228187  0.4844869068323294  1.0000
  Li  Li387     1.0  0.21056913134144659  0.0055307417065667405  0.4853042803720432  1.0000
  Li  Li388     1.0  0.9544724978147869  0.9213645229481313  0.5438313936836914  1.0000
  Li  Li389     1.0  0.11093274909584923  0.9545804140740748  0.5726805978074087  1.0000
  Li  Li390     1.0  0.05237269579059389  0.052791341325773754  0.6383998758506289  1.0000
  Li  Li391     1.0  0.8666578713667284  0.9307644283580213  0.6851548811719607  1.0000
  Li  Li392     1.0  0.8306970208918099  0.8678960725956608  0.7204212596494232  1.0000
  Li  Li393     1.0  0.914386873315731  0.9796163146926541  0.7421380575706156  1.0000
  Li  Li394     1.0  0.8385403822594761  0.8756382535945584  0.40064953903006845  1.0000
  Li  Li395     1.0  0.8627073675910166  0.1285132454010003  0.44311413470525174  1.0000
  Li  Li396     1.0  0.015643295568280147  0.14164605503696096  0.462697826389067  1.0000
  Li  Li397     1.0  0.08027437559913708  0.12481783704406989  0.5045278322032636  1.0000
  Li  Li398     1.0  0.8540145185089554  0.03585476345919144  0.5672919575294612  1.0000
  Li  Li399     1.0  0.08151102483278438  0.06942289684109491  0.6006201279826365  1.0000
  Li  Li400     1.0  0.9192496144119138  0.15628732106921733  0.6249236027217829  1.0000
  Li  Li401     1.0  0.0884850835703416  0.208544196081617  0.6583780886911335  1.0000
  Li  Li402     1.0  0.8588609259570328  0.07490713622342492  0.7074794030146909  1.0000
  Li  Li403     1.0  0.01121368040663051  0.31117658664040293  0.7990204643117487  1.0000
  Li  Li404     1.0  0.9915027039364823  0.9735134009545012  0.3875790084618706  1.0000
  Li  Li405     1.0  0.8902155617582322  0.29863788844439587  0.42689838786075485  1.0000
  Li  Li406     1.0  0.9008303843942878  0.32455111072133236  0.46295341985333704  1.0000
  Li  Li407     1.0  0.10222613205910115  0.28523978551787654  0.5240967845520443  1.0000
  Li  Li408     1.0  0.057044819166334526  0.14627795166352048  0.5681017255107432  1.0000
  Li  Li409     1.0  0.031015272761838752  0.26199115611772006  0.5983647415761484  1.0000
  Li  Li410     1.0  0.00825868935589491  0.3290023938563378  0.629549623037652  1.0000
  Li  Li411     1.0  0.16463890010493493  0.39369754952875746  0.6490174439194304  1.0000
  Li  Li412     1.0  0.8592523209323618  0.29866400437484564  0.7357855946326769  1.0000
  Li  Li413     1.0  0.9269130590359751  0.35053525699527166  0.7727538569315491  1.0000
  Li  Li414     1.0  0.9465106877655163  0.2632477683907781  0.39282200961460656  1.0000
  Li  Li415     1.0  0.7653664382777592  0.42008267546144945  0.4235698736448383  1.0000
  Li  Li416     1.0  0.9290602803059165  0.5082934062916206  0.4900593205751086  1.0000
  Li  Li417     1.0  0.9376769833399221  0.4259336328862188  0.5342733919796123  1.0000
  Li  Li418     1.0  0.842053791014545  0.35896788086866094  0.5698048885125767  1.0000
  Li  Li419     1.0  0.9763274444240158  0.46303765779956746  0.5980319126856138  1.0000
  Li  Li420     1.0  0.8189712088455999  0.5720398818217389  0.6179187796862572  1.0000
  Li  Li421     1.0  0.0038652579773519324  0.4459438799224971  0.6713216165103597  1.0000
  Li  Li422     1.0  0.9377605648125207  0.4310951863144095  0.7166048126139802  1.0000
  Li  Li423     1.0  0.030467404027778637  0.5696213609064641  0.7621643425629743  1.0000
  Li  Li424     1.0  0.9765217018947366  0.39847114707826137  0.3700543197483741  1.0000
  Li  Li425     1.0  0.7518874479978293  0.5901143400335683  0.43099500045359224  1.0000
  Li  Li426     1.0  0.9293983903911178  0.6395172141607893  0.45938832254489115  1.0000
  Li  Li427     1.0  0.002910402425386094  0.7983167849318072  0.5180000822228956  1.0000
  Li  Li428     1.0  0.9676146558081543  0.5327609118961936  0.5612643198011337  1.0000
  Li  Li429     1.0  0.06151379402840251  0.6417389059852101  0.5885624788420396  1.0000
  Li  Li430     1.0  0.8397943936850408  0.7638173002833036  0.6130464431937562  1.0000
  Li  Li431     1.0  0.003247001743041887  0.7756758955427024  0.6768382382056713  1.0000
  Li  Li432     1.0  0.9316605936822873  0.578897317231002  0.6941009358037662  1.0000
  Li  Li433     1.0  0.08393590887967574  0.7969136352985051  0.8297651910970081  1.0000
  Li  Li434     1.0  0.8467279912559503  0.5784495026758814  0.4046774674197261  1.0000
  Li  Li435     1.0  0.8839683118883709  0.7613916857797093  0.43284671382645273  1.0000
  Li  Li436     1.0  0.9726286144083479  0.8752063547770427  0.45600899360972685  1.0000
  Li  Li437     1.0  0.13271871583161565  0.9125265546099868  0.5055441643665508  1.0000
  Li  Li438     1.0  0.8487768360625236  0.7279832904916919  0.5445709735406692  1.0000
  Li  Li439     1.0  0.9555102772012095  0.8482339534677147  0.587875438386001  1.0000
  Li  Li440     1.0  0.8555041197110589  0.011978406134827813  0.648361527690452  1.0000
  Li  Li441     1.0  0.9471238645856288  0.8292399019289879  0.6420224920574812  1.0000
  Li  Li442     1.0  0.9741801562014462  0.7650331688261227  0.7112276663186355  1.0000
  Li  Li443     1.0  0.9614187486972428  0.796479782135551  0.7502984339786267  1.0000
  Li  Li444     1.0  0.7116565042156193  0.7558078858963249  0.40877307248115224  1.0000
  Li  Li445     1.0  0.9025255276423058  0.1503296531257165  0.8766629764705038  1.0000
  Li  Li446     1.0  0.04584132075213061  0.1312022244673819  0.9030630418742132  1.0000
  Li  Li447     1.0  0.20313119268769955  0.19780136237856877  0.9637185795627116  1.0000
  Li  Li448     1.0  0.07225122869192054  0.8941190083224064  0.022600810307043417  1.0000
  Li  Li449     1.0  0.16634285566394028  0.13578421186774997  0.02345746236453805  1.0000
  Li  Li450     1.0  0.9836209150280166  0.9994117158600043  0.8257315203477912  1.0000
  Li  Li451     1.0  0.14527551145682518  0.3171976389571924  0.8428400837904158  1.0000
  Li  Li452     1.0  0.1160347271374557  0.3344933340685331  0.9284863561130638  1.0000
  Li  Li453     1.0  0.10265590143099383  0.35877166260910903  0.963231744037263  1.0000
  Li  Li454     1.0  0.11980618268852518  0.21603942839151985  0.9942673673852462  1.0000
  Li  Li455     1.0  0.22302801739525627  0.31904555955027203  0.07005092199984109  1.0000
  Li  Li456     1.0  0.01794345604258042  0.19454609305146653  0.8268151819660853  1.0000
  Li  Li457     1.0  0.04814243742208887  0.4422469618100233  0.8590642867190212  1.0000
  Li  Li458     1.0  0.04371779511289248  0.43379562831171936  0.8976975750088148  1.0000
  Li  Li459     1.0  0.20601154689347176  0.5461577555768439  0.9576159743419792  1.0000
  Li  Li460     1.0  0.16829765925564785  0.338910777566341  0.028335468856081514  1.0000
  Li  Li461     1.0  0.286130304902314  0.49255434396998726  0.036679970097036385  1.0000
  Li  Li462     1.0  0.1686107734170409  0.3686358935667151  0.7678369209266372  1.0000
  Li  Li463     1.0  0.9465059239214164  0.6012156981874482  0.8763746040592738  1.0000
  Li  Li464     1.0  0.1835156730778666  0.6866983289535993  0.9334681988394072  1.0000
  Li  Li465     1.0  0.20004017279925293  0.733464441719316  0.9733809597233785  1.0000
  Li  Li466     1.0  0.07597108978260568  0.5587004183841937  0.9879319213832459  1.0000
  Li  Li467     1.0  0.30379109158091977  0.6547086399518136  0.02888427237950264  1.0000
  Li  Li468     1.0  0.005229573956956118  0.5145574290576763  0.7933087102861772  1.0000
  Li  Li469     1.0  0.06907375124938267  0.7752827638996336  0.866396331488167  1.0000
  Li  Li470     1.0  0.05469471540672275  0.8043267372514651  0.9036410989720316  1.0000
  Li  Li471     1.0  0.06989257458976827  0.8444771246339341  0.9465847707177406  1.0000
  Li  Li472     1.0  0.08187271869298197  0.7071825305153996  0.008141868300613142  1.0000
  Li  Li473     1.0  0.17901851302947416  0.793592296001298  0.03773720931539737  1.0000
  Li  Li474     1.0  0.007828276349159592  0.622635482802087  0.8322143246860875  1.0000
  Li  Li475     1.0  0.9782741237467281  0.9267332179100479  0.857555747645286  1.0000
  Li  Li476     1.0  0.09467232554049092  0.9852154787259936  0.9232418022347162  1.0000
  Li  Li477     1.0  0.029831972662096806  0.05542302841565765  0.9743152655938011  1.0000
  Li  Li478     1.0  0.048485443405856775  0.838162746202716  0.981210875777763  1.0000
  Li  Li479     1.0  0.07053357230763613  0.9094673917424848  0.06580974124807404  1.0000
  Li  Li480     1.0  0.1707208930038368  0.9350610750896297  0.8802460323595205  1.0000
  Li  Li481     1.0  0.08847777748115863  0.11207915114459295  0.858359300038468  1.0000
  Li  Li482     1.0  0.22542508018020735  0.17140519922265626  0.9229074737127132  1.0000
  Li  Li483     1.0  0.4373308926852775  0.1651548016163382  0.9428447169676318  1.0000
  Li  Li484     1.0  0.33249635434655744  0.09486250615608394  0.9802317012158162  1.0000
  Li  Li485     1.0  0.2056703294894962  0.11125266398038315  0.059766543014498935  1.0000
  Li  Li486     1.0  0.17116469057950232  0.014572112030420671  0.8089109644905054  1.0000
  Li  Li487     1.0  0.07121603370088925  0.27878453361752326  0.8793335611435321  1.0000
  Li  Li488     1.0  0.3243638030847267  0.3038887133265138  0.9020629573025069  1.0000
  Li  Li489     1.0  0.2944505738699022  0.34625222097017544  0.9451870951367324  1.0000
  Li  Li490     1.0  0.32382401247865794  0.22938936731358725  0.004397899558404195  1.0000
  Li  Li491     1.0  0.36835785717154823  0.2964709567257176  0.0429121510752839  1.0000
  Li  Li492     1.0  0.2697930676195185  0.13862474307487746  0.8314939398517507  1.0000
  Li  Li493     1.0  0.2424620001553916  0.44929775972485736  0.8798496437709542  1.0000
  Li  Li494     1.0  0.22625989371184896  0.4946335192024736  0.9171309496665888  1.0000
  Li  Li495     1.0  0.43031697886468695  0.5322651262256587  0.9799364170550441  1.0000
  Li  Li496     1.0  0.25093609495351726  0.3952590418765964  0.9899269118672872  1.0000
  Li  Li497     1.0  0.24617716655478405  0.5757269107622559  0.06835499685958046  1.0000
  Li  Li498     1.0  0.26808953604607605  0.4764968344926674  0.8403042004643071  1.0000
  Li  Li499     1.0  0.12799893124731143  0.6055737528910534  0.8919178229620679  1.0000
  Li  Li500     1.0  0.3893663462584806  0.6493920079459321  0.9185597674772844  1.0000
  Li  Li501     1.0  0.3759268961478494  0.6855030249725189  0.9591138171892791  1.0000
  Li  Li502     1.0  0.269178664558525  0.5944922807747844  0.00036835074922469957  1.0000
  Li  Li503     1.0  0.47564296224779395  0.533437557437848  0.0365815800830116  1.0000
  Li  Li504     1.0  0.18557061072397057  0.6146088919603024  0.8552644730446652  1.0000
  Li  Li505     1.0  0.2519685567936747  0.7658823133102166  0.8964744906490191  1.0000
  Li  Li506     1.0  0.2894374354033527  0.8418412862654945  0.9351820961931601  1.0000
  Li  Li507     1.0  0.3393011457740838  0.8670901065531242  0.9759405153265781  1.0000
  Li  Li508     1.0  0.2559921675529127  0.8111384555868655  0.008476646532738386  1.0000
  Li  Li509     1.0  0.2811267782524985  0.7912691230046641  0.06455142706350814  1.0000
  Li  Li510     1.0  0.20198334012782254  0.6184688049654835  0.8185479954502973  1.0000
  Li  Li511     1.0  0.18430282877519724  0.9703958205450333  0.8399639234471586  1.0000
  Li  Li512     1.0  0.29498569635733946  0.9878120263452725  0.9148386622255118  1.0000
  Li  Li513     1.0  0.19288866222272782  0.9936436676331534  0.956816930353501  1.0000
  Li  Li514     1.0  0.17795583842078874  0.9978685637689608  0.9973374120063847  1.0000
  Li  Li515     1.0  0.26250892143660065  0.9639271533785476  0.03688766617101158  1.0000
  Li  Li516     1.0  0.3128690388018025  0.804860807344405  0.8512313600774283  1.0000
  Li  Li517     1.0  0.22480143280596934  0.1169836910928869  0.8852279321025991  1.0000
  Li  Li518     1.0  0.42673893564330095  0.13849835108426528  0.9052533228949922  1.0000
  Li  Li519     1.0  0.6193266872874016  0.18094523443623933  0.969953061209388  1.0000
  Li  Li520     1.0  0.5170395426761244  0.18382416666072832  0.0033178361130701273  1.0000
  Li  Li521     1.0  0.4206946701441007  0.11469764747581271  0.037845844139153595  1.0000
  Li  Li522     1.0  0.3751351690330975  0.9708890337317186  0.8377032638057045  1.0000
  Li  Li523     1.0  0.2827454724714238  0.2619662403744807  0.8617473335740627  1.0000
  Li  Li524     1.0  0.5254740515816879  0.3183100669704871  0.9214647431300184  1.0000
  Li  Li525     1.0  0.5525253627044049  0.35047360250221016  0.9544796604002138  1.0000
  Li  Li526     1.0  0.43702005969759466  0.3155385802150829  0.9770680280960391  1.0000
  Li  Li527     1.0  0.47074540438771445  0.18089443014309  0.072619105948039  1.0000
  Li  Li528     1.0  0.4168743836882547  0.20537188347386828  0.7900490870064315  1.0000
  Li  Li529     1.0  0.4126362904109378  0.4351088863214576  0.859854909641083  1.0000
  Li  Li530     1.0  0.41926277432349485  0.47066952904862586  0.9032484763617801  1.0000
  Li  Li531     1.0  0.5872502199237578  0.4022357722511279  0.9914555753641758  1.0000
  Li  Li532     1.0  0.41080493438223  0.42100771833059814  0.013022646051327191  1.0000
  Li  Li533     1.0  0.44993149937865196  0.43575065375798683  0.06686848587276972  1.0000
  Li  Li534     1.0  0.3467470786846121  0.3350870048975207  0.8209570656622481  1.0000
  Li  Li535     1.0  0.3709949296593535  0.6023421502038938  0.8782039165519547  1.0000
  Li  Li536     1.0  0.4165393002834613  0.49100196948189734  0.9480004591283899  1.0000
  Li  Li537     1.0  0.575178661793233  0.669203038262439  0.9382166787096393  1.0000
  Li  Li538     1.0  0.4495268933265523  0.7094851774942154  0.9968383051352824  1.0000
  Li  Li539     1.0  0.4626213865140478  0.6762608771732989  0.062060536051483206  1.0000
  Li  Li540     1.0  0.2196875692690886  0.56698300357134  0.7711229129995466  1.0000
  Li  Li541     1.0  0.4461459489646251  0.7819110405202127  0.874155959856064  1.0000
  Li  Li542     1.0  0.437968652049664  0.8344884219979111  0.9148646380788337  1.0000
  Li  Li543     1.0  0.523465970337457  0.8372574389828376  0.9548955473275244  1.0000
  Li  Li544     1.0  0.5072581184954253  0.8707551843809692  0.0021331930975219127  1.0000
  Li  Li545     1.0  0.4003351568945828  0.8135778566112745  0.037738547349888796  1.0000
  Li  Li546     1.0  0.41815168469106595  0.6512419174995242  0.8386521530404292  1.0000
  Li  Li547     1.0  0.4052397043356649  0.9588814306004633  0.8841730641745139  1.0000
  Li  Li548     1.0  0.3942908598657372  0.9975048276059004  0.9477182998629073  1.0000
  Li  Li549     1.0  0.5150077473439754  0.02358964044323614  0.974931881895409  1.0000
  Li  Li550     1.0  0.3976458297905977  0.013061075870175567  0.010755815420065096  1.0000
  Li  Li551     1.0  0.4204936629684494  0.9595522369588855  0.06384674759669284  1.0000
  Li  Li552     1.0  0.43398019858629194  0.8687010041865991  0.7917804287035708  1.0000
  Li  Li553     1.0  0.5581116249678418  0.9400693294544844  0.8585730695201543  1.0000
  Li  Li554     1.0  0.6527808121412367  0.16506794637921657  0.9303309642209492  1.0000
  Li  Li555     1.0  0.9238207113267489  0.2661842638116794  0.9805136545243565  1.0000
  Li  Li556     1.0  0.6826712814786006  0.015608050969516521  0.004066787914257741  1.0000
  Li  Li557     1.0  0.6303294011961891  0.03504239405115043  0.06585241580309494  1.0000
  Li  Li558     1.0  0.5964025533808855  0.020585576614366108  0.8146040902182088  1.0000
  Li  Li559     1.0  0.4246859848120548  0.11158012063677468  0.8573005045467145  1.0000
  Li  Li560     1.0  0.6123742159607912  0.09480150363616927  0.8827248588235752  1.0000
  Li  Li561     1.0  0.733106352700978  0.2212625955444994  0.0009205357838661943  1.0000
  Li  Li562     1.0  0.6147223700317521  0.17934222072284517  0.04096615121035119  1.0000
  Li  Li563     1.0  0.6797571389619665  0.322708870074957  0.06488367352047186  1.0000
  Li  Li564     1.0  0.4820413239621927  0.1736278486909274  0.8219167906253401  1.0000
  Li  Li565     1.0  0.4953914608485441  0.2851968881728727  0.8803234309059298  1.0000
  Li  Li566     1.0  0.7271013129640473  0.35289617917899924  0.9360906055445982  1.0000
  Li  Li567     1.0  0.6478843534736081  0.525807354629464  0.9499803889981243  1.0000
  Li  Li568     1.0  0.5701342556641712  0.37216195853582795  0.02939669675566403  1.0000
  Li  Li569     1.0  0.7553064936065409  0.45905825022734426  0.04134271723506133  1.0000
  Li  Li570     1.0  0.5307171663840605  0.48767629650754013  0.8357922306024113  1.0000
  Li  Li571     1.0  0.560819483051316  0.6035924817234913  0.8613671373321105  1.0000
  Li  Li572     1.0  0.6217318621644309  0.5062187762398882  0.9153310619836097  1.0000
  Li  Li573     1.0  0.58853915281972  0.6866753221802273  0.9733238669708595  1.0000
  Li  Li574     1.0  0.6218892617209238  0.551115126475698  0.010869560342694706  1.0000
  Li  Li575     1.0  0.641061180919026  0.5671976920919404  0.06371277924900687  1.0000
  Li  Li576     1.0  0.528022472884802  0.5118870666613705  0.7772280138535919  1.0000
  Li  Li577     1.0  0.5534121441019231  0.6626349177732345  0.8961482481187498  1.0000
  Li  Li578     1.0  0.6626551374980323  0.8476592246006979  0.891606142279652  1.0000
  Li  Li579     1.0  0.6763047630970772  0.8639029217867406  0.9278065744937802  1.0000
  Li  Li580     1.0  0.5546228277410732  0.7279260777282347  0.027086610661529065  1.0000
  Li  Li581     1.0  0.6033400341018154  0.8299509198134905  0.06448338851095947  1.0000
  Li  Li582     1.0  0.509928736666649  0.6607644272690636  0.8049735103991917  1.0000
  Li  Li583     1.0  0.5169344985570388  0.7989680938152508  0.8326663799561537  1.0000
  Li  Li584     1.0  0.5403939275807771  0.9817973102626181  0.9151882901918177  1.0000
  Li  Li585     1.0  0.6713660269447661  0.9957607310408603  0.9482193312579446  1.0000
  Li  Li586     1.0  0.7000083248327992  0.8681592011701991  0.9792868544071229  1.0000
  Li  Li587     1.0  0.5553842255085448  0.9608521922046782  0.034095914254793414  1.0000
  Li  Li588     1.0  0.5158407198399058  0.05539211091996399  0.7861187618949297  1.0000
  Li  Li589     1.0  0.6320155981822352  0.09832262428948847  0.847497975392142  1.0000
  Li  Li590     1.0  0.8346609389667293  0.17782183243454314  0.9493327986070524  1.0000
  Li  Li591     1.0  0.9246415492616874  0.0835185389006267  0.0061137953330649975  1.0000
  Li  Li592     1.0  0.7822430562578707  0.047498226296779925  0.03931952014886542  1.0000
  Li  Li593     1.0  0.8237465886587393  0.18180796452943682  0.06298272976508161  1.0000
  Li  Li594     1.0  0.8287376719020797  0.08955969415258123  0.8425879846829941  1.0000
  Li  Li595     1.0  0.5555303634140902  0.2978858652764683  0.8448512837147445  1.0000
  Li  Li596     1.0  0.718538552211425  0.28755608570121227  0.9014398704300879  1.0000
  Li  Li597     1.0  0.7456107480818082  0.3488911236349702  0.9678885032810849  1.0000
  Li  Li598     1.0  0.8065071576155378  0.2756978996859137  0.03395833157352568  1.0000
  Li  Li599     1.0  0.9646028354354661  0.4210556611305811  0.03239518220840276  1.0000
  Li  Li600     1.0  0.7356909976550738  0.2246725874694896  0.8218777672272081  1.0000
  Li  Li601     1.0  0.6420090301149595  0.43866869314606977  0.8755039778234828  1.0000
  Li  Li602     1.0  0.809660139233292  0.5501268421463987  0.9353818944960518  1.0000
  Li  Li603     1.0  0.9112850909286447  0.47589616478643265  0.9762617955978045  1.0000
  Li  Li604     1.0  0.7778235306674507  0.40024957259003774  0.0059663725909837595  1.0000
  Li  Li605     1.0  0.8815903186250424  0.3837001866548056  0.0719626505369848  1.0000
  Li  Li606     1.0  0.7350756457393312  0.407994838810306  0.8371648686283919  1.0000
  Li  Li607     1.0  0.6730328313712456  0.6654041842126722  0.8330728414759646  1.0000
  Li  Li608     1.0  0.7527786720542345  0.6968892325532706  0.9136925079852641  1.0000
  Li  Li609     1.0  0.7680480381198753  0.7182346706485212  0.9503326610440752  1.0000
  Li  Li610     1.0  0.7424393170771861  0.5569320466902391  0.9792685480532975  1.0000
  Li  Li611     1.0  0.8879062832448741  0.5672131512489178  0.058360354392475555  1.0000
  Li  Li612     1.0  0.8212895755588397  0.5393654530794498  0.849484807459278  1.0000
  Li  Li613     1.0  0.6697761385457383  0.7757001684664324  0.8606234361186701  1.0000
  Li  Li614     1.0  0.856347896733552  0.7811579678858458  0.8830423624929145  1.0000
  Li  Li615     1.0  0.7178256872088379  0.7233011700777249  0.002665891685821986  1.0000
  Li  Li616     1.0  0.7456833592370948  0.650547124733933  0.03519067517055885  1.0000
  Li  Li617     1.0  0.8296552359590996  0.774936371011014  0.05943800065032945  1.0000
  Li  Li618     1.0  0.6762634467530554  0.6993659494209696  0.7786888487057828  1.0000
  Li  Li619     1.0  0.7309977526889024  0.9086318573177968  0.8365623604622912  1.0000
  Li  Li620     1.0  0.7620726013828794  0.9936457072860334  0.906409853464321  1.0000
  Li  Li621     1.0  0.8006790967051947  0.045975465317963725  0.9773496655076918  1.0000
  Li  Li622     1.0  0.6938853729005297  0.8507412649063874  0.025306199069620616  1.0000
  Li  Li623     1.0  0.8522719596306627  0.9788017435622605  0.07657721331256218  1.0000
  Li  Li624     1.0  0.62187741363429  0.9052318258321363  0.7813103408581743  1.0000
  Li  Li625     1.0  0.7114933188850758  0.25196825213590873  0.8659105676056577  1.0000
  Li  Li626     1.0  0.865167538687556  0.1160501653079172  0.9146011443772696  1.0000
  Li  Li627     1.0  0.03277040123400221  0.16389274827615385  0.9410539699158285  1.0000
  Li  Li628     1.0  0.8773378552591935  0.8730403134053176  0.006886888029210336  1.0000
  Li  Li629     1.0  0.9857916139462694  0.07340939183400845  0.04237106001923219  1.0000
  Li  Li630     1.0  0.9132480864119384  0.9873754825963523  0.7826757761284886  1.0000
  Li  Li631     1.0  0.900429861611532  0.27850866738683316  0.8503084439147841  1.0000
  Li  Li632     1.0  0.9266488728613886  0.28775851454783263  0.9117636474667964  1.0000
  Li  Li633     1.0  0.9272167423021602  0.3664261552124118  0.943311577125911  1.0000
  Li  Li634     1.0  0.9904155839439452  0.25016170404157767  0.022224139668539422  1.0000
  Li  Li635     1.0  0.01649781167234421  0.24747375522241188  0.05648279494238584  1.0000
  Li  Li636     1.0  0.06616835510446242  0.12514180150174742  0.7889398535839531  1.0000
  Li  Li637     1.0  0.8749163863739016  0.3984783146226394  0.8750041621449085  1.0000
  Li  Li638     1.0  0.8126469344047957  0.46958971599490257  0.9049723905271889  1.0000
  Li  Li639     1.0  0.026658582614818516  0.5106625237441381  0.9313068199150666  1.0000
  Li  Li640     1.0  0.0447090862478729  0.4028774735454508  0.0005153627088265722  1.0000
  Li  Li641     1.0  0.08201870645169963  0.5660527004446158  0.03209561358193325  1.0000
  Li  Li642     1.0  0.17559727071649667  0.4398322933059194  0.8085788677115683  1.0000
  Li  Li643     1.0  0.7513111210644332  0.5912125697881825  0.8796998671700358  1.0000
  Li  Li644     1.0  0.9448196052657404  0.6409305288231605  0.9126705840169086  1.0000
  Li  Li645     1.0  0.005417644552707435  0.6619014883145852  0.9531318274868494  1.0000
  Li  Li646     1.0  0.8790180065151287  0.5780297293629777  0.010528903753888486  1.0000
  Li  Li647     1.0  0.08091744093105623  0.4367632338346079  0.06085045957824309  1.0000
  Li  Li648     1.0  0.9575257048596414  0.43415465925329044  0.8278401418512363  1.0000
  Li  Li649     1.0  0.8611532329257557  0.7577965139208066  0.8443247935900898  1.0000
  Li  Li650     1.0  0.8888196686369331  0.8121465446090833  0.929977518970837  1.0000
  Li  Li651     1.0  0.8761193206755676  0.8710998554998507  0.9655456381092953  1.0000
  Li  Li652     1.0  0.879324785017688  0.7117718141562112  0.98424234556175  1.0000
  Li  Li653     1.0  0.0366865138524195  0.7076637721932876  0.06190124060694013  1.0000
  Li  Li654     1.0  0.8446821984842307  0.7795438716961614  0.7812630203733176  1.0000
  Li  Li655     1.0  0.7741343604790787  0.9777450202986522  0.8696183863526912  1.0000
  Li  Li656     1.0  0.9433708981092934  0.958746824317404  0.8938221001369849  1.0000
  Li  Li657     1.0  0.9008280786411981  0.9985383272802616  0.9389064508588718  1.0000
  Li  Li658     1.0  0.9295819389618003  0.7175337132123916  0.03200557603630405  1.0000
  Li  Li659     1.0  0.8982558333012544  0.8943605635853212  0.041186527443641596  1.0000
  Li  Li660     1.0  0.8963256399820595  0.8257680442301657  0.8132842175311789  1.0000
  La  La1       1.0  0.24680405159444155  0.9943915717565869  0.16659301369781485  1.0000
  La  La2       1.0  0.7193843025500889  0.514288869067182  0.16360719120786552  1.0000
  La  La3       1.0  0.8710096073107724  0.7314884448415515  0.1843755369683137  1.0000
  La  La4       1.0  0.3460246371453948  0.723076611118115  0.17910894700930172  1.0000
  La  La5       1.0  0.604538282120166  0.2867113950804133  0.1844533225640627  1.0000
  La  La6       1.0  0.10433019890997068  0.2516835034063083  0.18138647056996512  1.0000
  La  La7       1.0  0.725907663662823  0.9760970854984508  0.19813670358359917  1.0000
  La  La8       1.0  0.24415997846906812  0.45014803880515447  0.19907073174937756  1.0000
  La  La9       1.0  0.48996819071733627  0.11624804720319033  0.21803490237418832  1.0000
  La  La10      1.0  0.983436710459479  0.36986049410370486  0.21916603876374233  1.0000
  La  La11      1.0  0.43793785995748974  0.6148242124699849  0.2209669486033292  1.0000
  La  La12      1.0  0.9577117021186539  0.870594897404966  0.2218069695094664  1.0000
  La  La13      1.0  0.7534114710135191  0.4928657771825535  0.23955653036240723  1.0000
  La  La14      1.0  0.2441753664956484  0.010723399770282001  0.23939005359742707  1.0000
  La  La15      1.0  0.3568831080656367  0.2563506215893663  0.2591850289162112  1.0000
  La  La16      1.0  0.8592246916215284  0.23427411262813663  0.25848167913866527  1.0000
  La  La17      1.0  0.1028374300977734  0.7798508547110229  0.2610244333182824  1.0000
  La  La18      1.0  0.5918550552515751  0.7151366310336972  0.2587674674069958  1.0000
  La  La19      1.0  0.22563952653880334  0.5054787146481834  0.27569382995973996  1.0000
  La  La20      1.0  0.7456080976693847  0.002910839675535567  0.2798811663079025  1.0000
  La  La21      1.0  0.9783847559113531  0.6353698657253071  0.29558358404822277  1.0000
  La  La22      1.0  0.4792141777578312  0.8527906747601223  0.2966671872067218  1.0000
  La  La23      1.0  0.9813548624965855  0.12187299513540405  0.3002264792060082  1.0000
  La  La24      1.0  0.4802131012163556  0.3594284350122065  0.2983808245682877  1.0000
  La  La25      1.0  0.2260636810041561  0.9845533205928636  0.3125971413352583  1.0000
  La  La26      1.0  0.7450753060797862  0.5297844723541897  0.31290153929845677  1.0000
  La  La27      1.0  0.859587952587177  0.7694207064405022  0.33716205673876004  1.0000
  La  La28      1.0  0.36393317817092585  0.7106112497974384  0.33602500446333805  1.0000
  La  La29      1.0  0.6060477274335446  0.2416875074380058  0.33733733751948713  1.0000
  La  La30      1.0  0.10122689285956088  0.2757835906062888  0.3383486922326891  1.0000
  La  La31      1.0  0.7185930847147871  0.9939493213361688  0.3577149837098099  1.0000
  La  La32      1.0  0.23307669513878393  0.5007609900191367  0.3558344506685029  1.0000
  Zr  Zr1       1.0  0.9836939043297285  0.987536128185222  0.1806269086624152  1.0000
  Zr  Zr2       1.0  0.49447402277587743  0.9286021465620728  0.1783649581867169  1.0000
  Zr  Zr3       1.0  0.4635931246743534  0.49564096911022193  0.17924085777207463  1.0000
  Zr  Zr4       1.0  0.9945138021632943  0.4934132268037232  0.17998472901625195  1.0000
  Zr  Zr5       1.0  0.7435370326797442  0.2333396351445869  0.2213761422587554  1.0000
  Zr  Zr6       1.0  0.7407664552164381  0.7323120079929885  0.22253455112177659  1.0000
  Zr  Zr7       1.0  0.23946674330961096  0.23375090555146774  0.22178061603575827  1.0000
  Zr  Zr8       1.0  0.2299860744294355  0.758745806903699  0.22199251327790387  1.0000
  Zr  Zr9       1.0  0.47838408556576395  0.492908853960994  0.2609890280818294  1.0000
  Zr  Zr10      1.0  0.9830366976141465  0.494056587553678  0.26123532158467816  1.0000
  Zr  Zr11      1.0  0.9940049908583951  0.012867078219007233  0.25931082866614646  1.0000
  Zr  Zr12      1.0  0.48528200793892784  0.0017486201136944768  0.2608991138280081  1.0000
  Zr  Zr13      1.0  0.22992050634598862  0.7377048264223337  0.299019365058186  1.0000
  Zr  Zr14      1.0  0.21355849889276635  0.26629939776625594  0.2984323790173066  1.0000
  Zr  Zr15      1.0  0.7382759127585072  0.7682900906272196  0.29744446687384307  1.0000
  Zr  Zr16      1.0  0.7546151228817538  0.24050124806666423  0.3022266147895793  1.0000
  Zr  Zr17      1.0  0.005178993067310246  0.9940740403500802  0.3374764855834415  1.0000
  Zr  Zr18      1.0  0.4628023556545538  0.9734826045629307  0.3411831548434528  1.0000
  Zr  Zr19      1.0  0.5042990114756668  0.48569924738385906  0.339267603047905  1.0000
  Zr  Zr20      1.0  0.9597432953466597  0.5004090424725498  0.3386716429403161  1.0000
  O   O1        1.0  0.21788330473702724  0.7317616296118488  0.15884436857792744  1.0000
  O   O2        1.0  0.27303789989417715  0.16153037510347426  0.16984555827046097  1.0000
  O   O3        1.0  0.7132822181328891  0.6613736326550677  0.17476404145472846  1.0000
  O   O4        1.0  0.7491381513838345  0.3544451825369988  0.1710597946662998  1.0000
  O   O5        1.0  0.5165672920781071  0.7931125198977027  0.17058322765573286  1.0000
  O   O6        1.0  0.9593060140215584  0.12778913223585384  0.1770019551025424  1.0000
  O   O7        1.0  0.014994505804243665  0.6522463198413042  0.17844134866862624  1.0000
  O   O8        1.0  0.4499759024220626  0.3557723214973549  0.17575587596424788  1.0000
  O   O9        1.0  0.883304078691458  0.9011689861011031  0.16843217292013135  1.0000
  O   O10       1.0  0.6439929125734093  0.9617922400128093  0.17191282835277072  1.0000
  O   O11       1.0  0.1521624276922967  0.4098479797559754  0.1773929527742897  1.0000
  O   O12       1.0  0.3221724213860222  0.5450821418798202  0.17637041839399734  1.0000
  O   O13       1.0  0.34720139198279687  0.9068703589625714  0.18446684616779063  1.0000
  O   O14       1.0  0.12326426092914622  0.009400323266336772  0.18782763819227277  1.0000
  O   O15       1.0  0.6240110791918941  0.4704671701948285  0.18889586655285917  1.0000
  O   O16       1.0  0.8653950330592859  0.5364609791101158  0.18906020646472868  1.0000
  O   O17       1.0  0.47643095828978865  0.17948448957795266  0.19098137497045103  1.0000
  O   O18       1.0  0.012163944455835582  0.8559110901092228  0.19428966506631934  1.0000
  O   O19       1.0  0.9770457111163672  0.3505256616609386  0.19058271840822255  1.0000
  O   O20       1.0  0.47502214974598705  0.6315064913014463  0.1932234133789225  1.0000
  O   O21       1.0  0.7801807500231113  0.19601548978427702  0.19497002397987  1.0000
  O   O22       1.0  0.7265298656373216  0.8156743883938721  0.19925814282221133  1.0000
  O   O23       1.0  0.27561441522131214  0.2892697975348209  0.1989486884770894  1.0000
  O   O24       1.0  0.206047909554145  0.7562725181088902  0.1972143648134463  1.0000
  O   O25       1.0  0.887096604160951  0.9975618195104817  0.2022610072658557  1.0000
  O   O26       1.0  0.5274851132658508  0.9587753431733897  0.2020416895531109  1.0000
  O   O27       1.0  0.08045580899552304  0.5188161672189608  0.20527949421380579  1.0000
  O   O28       1.0  0.42735405471094745  0.45470757684961755  0.20760180989948973  1.0000
  O   O29       1.0  0.10782023607393333  0.19806981563612988  0.20923624585682252  1.0000
  O   O30       1.0  0.38118925979651963  0.7789574057869852  0.22134348922546102  1.0000
  O   O31       1.0  0.6137483077551612  0.300114109280338  0.2142083767104036  1.0000
  O   O32       1.0  0.8819833257782113  0.7180337838096923  0.2164490207937103  1.0000
  O   O33       1.0  0.2987706308827085  0.09772833905463241  0.21449844342400987  1.0000
  O   O34       1.0  0.22957025707306794  0.9001712169637612  0.21778842057730755  1.0000
  O   O35       1.0  0.8207858452004536  0.37506467944964555  0.21704044387017135  1.0000
  O   O36       1.0  0.6962916270538512  0.5964768568208209  0.21662604666871535  1.0000
  O   O37       1.0  0.196414483275234  0.37721814578959184  0.22625911206708618  1.0000
  O   O38       1.0  0.2604429559779548  0.6099146467881976  0.22491408643935012  1.0000
  O   O39       1.0  0.678616305108335  0.09844266369902151  0.22246219441799175  1.0000
  O   O40       1.0  0.8008004178393205  0.8658838233081951  0.2313246178928922  1.0000
  O   O41       1.0  0.38376875503741054  0.2746775771033065  0.2311118452063389  1.0000
  O   O42       1.0  0.09299418819837184  0.7310495416271505  0.23262971345194683  1.0000
  O   O43       1.0  0.8877886863118659  0.19325160258441287  0.22904170420663222  1.0000
  O   O44       1.0  0.6005649365041256  0.7819767807489159  0.23199448436007167  1.0000
  O   O45       1.0  0.926090838524882  0.5192621587572169  0.23579090104841594  1.0000
  O   O46       1.0  0.5345623731738018  0.4701350691766784  0.23746343569029235  1.0000
  O   O47       1.0  0.05163511756418007  0.03157902355852289  0.23446882335026875  1.0000
  O   O48       1.0  0.42939760335355737  0.9812640061505794  0.23729621003271342  1.0000
  O   O49       1.0  0.7133393109260736  0.2680939320830784  0.24681549984106702  1.0000
  O   O50       1.0  0.7442327280295389  0.6560475662599753  0.24697904737257653  1.0000
  O   O51       1.0  0.21895522371313825  0.1871921285038399  0.24716255960503433  1.0000
  O   O52       1.0  0.2609040237180404  0.8228923265808644  0.24866879511162457  1.0000
  O   O53       1.0  0.007711646015348658  0.34190196573910986  0.25545987239592927  1.0000
  O   O54       1.0  0.44209359912799595  0.6320501002400808  0.25333267341882654  1.0000
  O   O55       1.0  0.5236803650991787  0.14674877045964616  0.25685195715673914  1.0000
  O   O56       1.0  0.959911766148776  0.8610980438357374  0.2546027266084973  1.0000
  O   O57       1.0  0.3450638644971128  0.4276260554479545  0.25519088632301384  1.0000
  O   O58       1.0  0.124053947952848  0.5105376198593943  0.25161118073732125  1.0000
  O   O59       1.0  0.64251960708236  0.9799122376386152  0.25634726614799536  1.0000
  O   O60       1.0  0.8532181656721295  0.03794508365046187  0.2546786789331008  1.0000
  O   O61       1.0  0.8379797847881932  0.4612438366083081  0.2664168805997668  1.0000
  O   O62       1.0  0.6130396641259278  0.5376930733420662  0.27005609292428245  1.0000
  O   O63       1.0  0.13405488116352385  0.9534646910258114  0.268918430982581  1.0000
  O   O64       1.0  0.3356355312665276  0.036980348187317325  0.2692122130162727  1.0000
  O   O65       1.0  0.9786941792912509  0.6524389283206495  0.26548092407272333  1.0000
  O   O66       1.0  0.5342828635493141  0.3482040028575303  0.26980114774585384  1.0000
  O   O67       1.0  0.4699840281747093  0.8575130744011089  0.26618203848173116  1.0000
  O   O68       1.0  0.006350921089324708  0.14536746773643489  0.2677339278534737  1.0000
  O   O69       1.0  0.27084255572668203  0.6655107804756831  0.2760608860910095  1.0000
  O   O70       1.0  0.18165328643002526  0.3120587574836911  0.27433856829057585  1.0000
  O   O71       1.0  0.7672946334733066  0.8123772075148857  0.2741966838882911  1.0000
  O   O72       1.0  0.7256437143651038  0.16352426079224092  0.2779163394795134  1.0000
  O   O73       1.0  0.41751526896746194  0.517255759826746  0.2860035228982342  1.0000
  O   O74       1.0  0.0409927081569817  0.4678702250347779  0.2844871544193916  1.0000
  O   O75       1.0  0.5133870697873398  0.011812391050050147  0.29343820754937056  1.0000
  O   O76       1.0  0.9288712851003492  0.9749582227256474  0.2852380554901183  1.0000
  O   O77       1.0  0.5935454676510894  0.7236746127808837  0.2906654885575158  1.0000
  O   O78       1.0  0.8906575894519875  0.27642002936129195  0.2930427216013256  1.0000
  O   O79       1.0  0.09120958867621425  0.7816987294382471  0.2910425401169288  1.0000
  O   O80       1.0  0.3712229772076263  0.23706570976949323  0.2919505584987383  1.0000
  O   O81       1.0  0.8091451649776917  0.6260620530863612  0.2907023721297284  1.0000
  O   O82       1.0  0.7154478603122175  0.389585582674924  0.2977387364092059  1.0000
  O   O83       1.0  0.29730446366410057  0.874061258083833  0.29546493099343674  1.0000
  O   O84       1.0  0.18170386623884335  0.12075442495446811  0.29671350281771885  1.0000
  O   O85       1.0  0.7124226632398222  0.9032578733194803  0.30802632933497315  1.0000
  O   O86       1.0  0.8238906340257137  0.1055922583726151  0.3072677775193144  1.0000
  O   O87       1.0  0.17391401162937364  0.6007328700258253  0.304965669147629  1.0000
  O   O88       1.0  0.25651956433142964  0.39653652509557447  0.3068045552628624  1.0000
  O   O89       1.0  0.887069028331597  0.7920881137614646  0.30787986797875566  1.0000
  O   O90       1.0  0.5931011837620139  0.2206629392347426  0.30632175457333277  1.0000
  O   O91       1.0  0.39940398451246445  0.7130625154368118  0.30871586791525907  1.0000
  O   O92       1.0  0.07869019937358755  0.29839235677284515  0.3091681455023946  1.0000
  O   O93       1.0  0.37964580059890624  0.05434150985133434  0.32559193841267736  1.0000
  O   O94       1.0  0.052354471115314515  0.9727233105987358  0.31219496602218005  1.0000
  O   O95       1.0  0.5623341242522578  0.5195871945709529  0.31525081655845394  1.0000
  O   O96       1.0  0.9230196428936787  0.492628915302394  0.312667238678219  1.0000
  O   O97       1.0  0.2115299951218833  0.7896603358853078  0.32345856696538083  1.0000
  O   O98       1.0  0.23355669856413838  0.2248893656894546  0.3255746001696058  1.0000
  O   O99       1.0  0.698360651316962  0.7073588480821209  0.3206326947762957  1.0000
  O   O100      1.0  0.7622238770577715  0.27590556615894696  0.3270715190290494  1.0000
  O   O101      1.0  0.5350651969269806  0.8798015174172339  0.3263727639005385  1.0000
  O   O102      1.0  0.9788521042563075  0.12833837803685313  0.3336757654752483  1.0000
  O   O103      1.0  0.0030754949516935593  0.6460097279985043  0.3307939221535431  1.0000
  O   O104      1.0  0.4618561874649074  0.35926866262464435  0.3298577646437619  1.0000
  O   O105      1.0  0.8533834871367721  0.9705621429273315  0.3384900802737275  1.0000
  O   O106      1.0  0.5791360301155272  0.06411082116178175  0.33714276899574624  1.0000
  O   O107      1.0  0.10739575771210338  0.4694354849553767  0.33429329165529365  1.0000
  O   O108      1.0  0.35211142749085245  0.5166319862510335  0.335020823800979  1.0000
  O   O109      1.0  0.36530401194862405  0.8615069420377857  0.34824938343880935  1.0000
  O   O110      1.0  0.16917263845103545  0.9982733414279906  0.3405999561459521  1.0000
  O   O111      1.0  0.6246814412782916  0.395777997326178  0.3469885180282179  1.0000
  O   O112      1.0  0.79073230435375  0.5365070417313847  0.3416298563575117  1.0000
  O   O113      1.0  0.37676277577838013  0.04394600737156421  0.363333587337436  1.0000
  O   O114      1.0  0.008046317775644218  0.8378932261290539  0.3404696887496685  1.0000
  O   O115      1.0  0.9403591669708223  0.3616673345914948  0.3456106343289791  1.0000
  O   O116      1.0  0.5198911858565626  0.634532095659266  0.3462557697168813  1.0000
  O   O117      1.0  0.7858070126259392  0.1413176076762027  0.3552926533417245  1.0000
  O   O118      1.0  0.7126752340522083  0.8281880678807932  0.34865301970133245  1.0000
  O   O119      1.0  0.2503711740040896  0.33679373867223045  0.3527119271034677  1.0000
  O   O120      1.0  0.1973547571446148  0.6540199835864695  0.35182721697102376  1.0000
  O   O121      1.0  0.14861967386030378  0.5490007604672597  0.14599279146939947  1.0000
  O   O122      1.0  0.5383126431095464  0.5492298774287561  0.1588445379029886  1.0000
  O   O123      1.0  0.4490247597379013  0.030385093194062796  0.16235785647143935  1.0000
  O   O124      1.0  0.09567824463064238  0.9098154537894136  0.16065338582254873  1.0000
  O   O125      1.0  0.9360020804389405  0.4618381084298495  0.15734898188995894  1.0000
  O   O126      1.0  0.00721945189468598  0.004693513963196727  0.3649000133566826  1.0000
  O   O127      1.0  0.9585568388700315  0.5416288552254966  0.36347909736969025  1.0000
  O   O128      1.0  0.4568295902219275  0.45770405524875274  0.364283356557771  1.0000
  O   O129      1.0  0.5475815871814542  0.9273749515693267  0.3632137722020902  1.0000
  O   O130      1.0  0.17669211511745347  0.8661866105198619  0.36950094994433014  1.0000
